* Copyright 2020 The SkyWater PDK Authors
*
* Licensed under the Apache License, Version 2.0 (the "License");
* you may not use this file except in compliance with the License.
* You may obtain a copy of the License at
*
*     https://www.apache.org/licenses/LICENSE-2.0
*
* Unless required by applicable law or agreed to in writing, software
* distributed under the License is distributed on an "AS IS" BASIS,
* WITHOUT WARRANTIES OR CONDITIONS OF ANY KIND, either express or implied.
* See the License for the specific language governing permissions and
* limitations under the License.

******************************************************************
******************************************************************
*  *****************************************************
*  01/04/2022 Usman Suriono
*      Why     : Leakage corner was too low.
*      What    : Add variation to DIBL (deleta0) as the function of VT.
*  04/14/2021 Usman Suriono
*      Why     : New scalable sky130_fd_pr__nfet_01v8 model
*      What    : Converted from discrete nshort model
*                Replaced rsh from 1 to calculated rsh from the original model.
*                PDK netlist nrd/nrs = ratio of distance the middle of the contact to Gate.
*
*  *****************************************************
*
*  Nmos Model
*  -----------------------------------------------------

.subckt  sky130_fd_pr__nfet_01v8  d g s b  mult=1
+ 
.param  l = 1 w = 1 nf = 1 ad = 0 as = 0 pd = 0 ps = 0 nrd = {0.14/w} nrs = {0.14/w}
+ sa = 0 sb = 0 sd = 0
+ swx_vth = {sw_vth0_sky130_fd_pr__nfet_01v8+sw_mm_vth0_sky130_fd_pr__nfet_01v8*mismatch_factor*MC_MM_SWITCH*AGAUSS(0,1.0,1)/sqrt(l*w*mult)+sw_vth0_sky130_fd_pr__nfet_01v8_mc}
+ swx_nrds = {89.1*nf/w+443.5}

Msky130_fd_pr__nfet_01v8  d g s b nshort_model l = {l} w = {w} ad = {ad} as = {as} pd = {pd} ps = {ps} nrd = {nrd} nrs = {nrs} sa = {sa} sb = {sb} sd = {sd} nf = {nf}
* + deltox = 0.3*(sw_tox_lv_corner - sw_tox_lv_nom) + sw_tox_lv_mc + sw_mm_tox_lv * mismatch_factor*MC_MM_SWITCH*AGAUSS(0,1.0,1)/sqrt(l*w*mult)
* + mulu0  = sw_u0_sky130_fd_pr__nfet_01v8
+ delvto = {swx_vth*(0.008*8/l+0.992)*(0.035*7/w+0.965)*(0.001*56/(w*l)+0.999)}
* + mulvsat = sw_vsat_sky130_fd_pr__nfet_01v8
* + deleta0 = max(0,sw_vth0_sky130_fd_pr__nfet_01v8*2.8)



.model nshort_model.1 nmos
+ level = 54 lmin = 8E-6 lmax = 2.02E-5 wmin = 7E-6
+ wmax = 1.01E-3 version = 4.5
+ binunit = 2 mobmod = 0 capmod = 2
+ rdsmod = 0 igcmod = 0 igbmod = 0
+ rbodymod = 1 trnqsmod = 0 acnqsmod = 0
+ fnoimod = 1 tnoimod = 1 diomod = 1
+ tempmod = 0 permod = 1 geomod = 0
+ rgatemod = 0 epsrox = 3.9 toxe = 4.148E-9
+ toxm = 4.148E-9 dtox = 0 xj = 1.5E-7
+ ndep = 1.7E17 ngate = 9.999999999999999E22 nsd = 1E20
+ rsh = {swx_nrds} rshg = 0.1 phin = 0
+ wint = {2.1859E-8+sw_activecd} wl = 0 wln = 1
+ ww = 0 wwn = 1 wwl = 0
+ lint = {1.1932E-8-sw_polycd} ll = 0 lln = 1
+ lw = 0 lwn = 1 lwl = 0
+ llc = 0 lwc = 0 lwlc = 0
+ wlc = 0 wwc = 0 wwlc = 0
+ dwg = 0 dwb = 0 xl = 0
+ xw = 0 dmcg = 0 dmdg = 0
+ dmcgt = 0 xgw = 0 xgl = 0
+ ngcon = 1 vth0 = 0.5190093 k1 = 0.54086565
+ k2 = -0.026724591 k3 = 2 k3b = 0.54
+ w0 = 0 lpe0 = 1.0325E-7 lpeb = -7.082E-8
+ vbm = -3 dvtp0 = 0 dvtp1 = 0
+ dvt0 = 0 dvt1 = 0.53 dvt2 = -0.032
+ dvt0w = -3.58 dvt1w = 1.6706E6 dvt2w = 0.068
+ vfbsdoff = 0 u0 = 0.0318614 ua = -7.586635699999999E-10
+ ub = 1.674192E-18 uc = 4.9242E-11 ud = 0
+ up = 0 lp = 1 eu = 1.67
+ vsat = 8E4 a0 = 1.334619 ags = 0.4051693
+ b0 = 0 b1 = 2.1073424E-24 keta = -8.7946E-3
+ a1 = 0 a2 = 0.42385546 rdsw = 65.968
+ rdswmin = 0 rdw = 0 rdwmin = 0
+ rsw = 0 rswmin = 0 prwb = 0
+ prwg = 0.021507 wr = 1 voff = -0.1052686
+ voffl = 5.8197729E-9 minv = 0 nfactor = 2.63331
+ eta0 = 0.08 etab = -0.07 dsub = 0.56
+ cit = 0 cdsc = 0 cdscb = 0
+ cdscd = 5.4E-3 pclm = 0.026316 pdiblc1 = 0.39
+ pdiblc2 = 3.0734587E-3 pdiblcb = -0.025 drout = 0.56
+ pscbe1 = 7.5467416E8 pscbe2 = 1E-12 pvag = 0
+ delta = 0.01 fprout = 0 pdits = 0
+ pditsl = 0 pditsd = 0 lambda = 0
+ vtl = 0 lc = 5E-9 xn = 3
+ alpha0 = 3E-8 alpha1 = 0.85 beta0 = 13.86
+ aigbacc = 1 bigbacc = 0 cigbacc = 0
+ nigbacc = 0 aigbinv = 0.35 bigbinv = 0.03
+ cigbinv = 6E-3 eigbinv = 1.1 nigbinv = 0
+ aigc = 0.43 bigc = 0.054 cigc = 0.075
+ aigsd = 0.43 bigsd = 0.054 cigsd = 0.075
+ dlcig = 0 nigc = 0 poxedge = 1
+ pigcd = 1 ntox = 1 toxref = 4.148E-9
+ agidl = 0 bgidl = 2.3E9 cgidl = 0.5
+ egidl = 0.8 noia = 2.5E42 noib = 0
+ noic = 0 em = 4.1E7 af = 1
+ ef = 0.84 kf = 0 lintnoi = -1E-7
+ tnoia = 1.5E7 tnoib = 9.9E6 ntnoi = 1
+ rnoia = 0.94 rnoib = 0.26 xpart = 0
+ cgso = {2.449068E-10/sw_func_tox_lv_ratio} cgdo = {2.449068E-10/sw_func_tox_lv_ratio} cgbo = {1E-13/sw_func_tox_lv_ratio}
+ ckappas = 0.6 cf = 1.4067E-12 clc = 1E-7
+ cle = 0.6 dlc = 9.87908E-9 dwc = 0
+ vfbcv = -1 noff = 3.4037 voffcv = -0.17287
+ acde = 0.4 moin = 6.9 cgsl = {0/sw_func_tox_lv_ratio}
+ cgdl = {0/sw_func_tox_lv_ratio} ijthsrev = 0.1 ijthsfwd = 0.1
+ xjbvs = 1 bvs = 11.7 jss = 2.75E-3
+ jsws = 6E-10 cjs = {sw_nsd_pw_cj} mjs = 0.44
+ mjsws = 9E-4 cjsws = {3.67354204E-11*sw_func_nsd_pw_cj} cjswgs = {2.38232788E-10*sw_func_nsd_pw_cj}
+ mjswgs = 0.8 pbs = 0.729 pbsws = 0.2
+ pbswgs = 0.95578 xrcrg1 = 12 xrcrg2 = 1
+ rbpb = 50 rbpd = 50 rbps = 50
+ rbdb = 50 rbsb = 50 gbmin = 1E-12
+ tnom = 30 ute = -1.8134 kt1 = -0.31303
+ kt1l = 0 kt2 = -0.045313337 ua1 = 3.7602E-10
+ ub1 = -6.3962E-19 uc1 = 1.5829713E-11 at = 1.4E5
+ prt = 0 njs = 1.2928 xtis = 2
+ tpb = 1.2287E-3 tpbsw = 0 tpbswg = 0
+ tcj = 7.92E-4 tcjsw = 1E-5 tcjswg = 0
+ tvoff = 0 tvfbsdoff = 0 saref = 3E-6
+ sbref = 3E-6 wlod = 0 ku0 = -2.7E-8
+ kvsat = 0.2 kvth0 = 9.8E-9 tku0 = 0
+ llodku0 = 0 wlodku0 = 1 llodvth = 0
+ wlodvth = 1 lku0 = 0 wku0 = 0
+ pku0 = 0 lkvth0 = 0 wkvth0 = 2E-7
+ pkvth0 = 0 stk2 = 0 lodk2 = 1
+ steta0 = 0 lodeta0 = 1

.model nshort_model.2 nmos
+ level = 54 lmin = 4E-6 lmax = 8E-6 wmin = 7E-6
+ wmax = 1.01E-3 version = 4.5
+ binunit = 2 mobmod = 0 capmod = 2
+ rdsmod = 0 igcmod = 0 igbmod = 0
+ rbodymod = 1 trnqsmod = 0 acnqsmod = 0
+ fnoimod = 1 tnoimod = 1 diomod = 1
+ tempmod = 0 permod = 1 geomod = 0
+ rgatemod = 0 epsrox = 3.9 toxe = 4.148E-9
+ toxm = 4.148E-9 dtox = 0 xj = 1.5E-7
+ ndep = 1.7E17 ngate = 9.999999999999999E22 nsd = 1E20
+ rsh = {swx_nrds} rshg = 0.1 phin = 0
+ wint = {2.1859E-8+sw_activecd} wl = 0 wln = 1
+ ww = 0 wwn = 1 wwl = 0
+ lint = {1.1932E-8-sw_polycd} ll = 0 lln = 1
+ lw = 0 lwn = 1 lwl = 0
+ llc = 0 lwc = 0 lwlc = 0
+ wlc = 0 wwc = 0 wwlc = 0
+ dwg = 0 dwb = 0 xl = 0
+ xw = 0 dmcg = 0 dmdg = 0
+ dmcgt = 0 xgw = 0 xgl = 0
+ ngcon = 1 vth0 = 0.512816965197 lvth0 = 4.939090454626121E-8
+ k1 = 0.5317726245816 lk1 = 7.252720738861557E-8 k2 = -0.020817331231724
+ lk2 = -4.711710729909788E-8 k3 = 2 k3b = 0.54
+ w0 = 0 lpe0 = 1.0325E-7 lpeb = -7.082E-8
+ vbm = -3 dvtp0 = 0 dvtp1 = 0
+ dvt0 = 0 dvt1 = 0.53 dvt2 = -0.032
+ dvt0w = -3.58 dvt1w = 1.6706E6 dvt2w = 0.068
+ vfbsdoff = 0 u0 = 0.0321778010222 lu0 = -2.523657583606224E-9
+ ua = -7.638052605666998E-10 lua = 4.101082322991529E-17 ub = 1.702279424704E-18
+ lub = -2.240291193288636E-25 uc = 5.555113379800001E-11 luc = -5.032250921504456E-17
+ ud = 0 up = 0 lp = 1
+ eu = 1.67 vsat = 8E4 a0 = 1.42994189043
+ la0 = -7.603083379827791E-7 ags = 0.3924181300582 lags = 1.017050656149089E-7
+ b0 = 0 b1 = 4.202112395241601E-24 lb1 = -1.670817037076636E-29
+ keta = -0.0155666554318 lketa = 5.401483512357553E-8 a1 = 0
+ a2 = 0.42385546 rdsw = 65.968 rdswmin = 0
+ rdw = 0 rdwmin = 0 rsw = 0
+ rswmin = 0 prwb = 0 prwg = 0.021507
+ wr = 1 voff = -0.10886654582436 lvoff = 2.869770521572751E-8
+ voffl = 5.8197729E-9 minv = 0 nfactor = 2.59233591852
+ lnfactor = 3.268148463595616E-7 eta0 = 0.08 etab = -0.07
+ dsub = 0.56 cit = 0 cdsc = 0
+ cdscb = 0 cdscd = 5.4E-3 pclm = -0.531042839936
+ lpclm = 4.445569908131768E-6 pdiblc1 = 0.39 pdiblc2 = 3.0564335814718E-3
+ lpdiblc2 = 1.357946607970441E-10 pdiblcb = -0.025 drout = 0.56
+ pscbe1 = 7.0961873396144E8 lpscbe1 = 359.36820562149586 pscbe2 = 1E-12
+ pvag = 0 delta = 0.01 fprout = 0
+ pdits = 0 pditsl = 0 pditsd = 0
+ lambda = 0 vtl = 0 lc = 5E-9
+ xn = 3 alpha0 = 3E-8 alpha1 = 0.85
+ beta0 = 13.86 aigbacc = 1 bigbacc = 0
+ cigbacc = 0 nigbacc = 0 aigbinv = 0.35
+ bigbinv = 0.03 cigbinv = 6E-3 eigbinv = 1.1
+ nigbinv = 0 aigc = 0.43 bigc = 0.054
+ cigc = 0.075 aigsd = 0.43 bigsd = 0.054
+ cigsd = 0.075 dlcig = 0 nigc = 0
+ poxedge = 1 pigcd = 1 ntox = 1
+ toxref = 4.148E-9 agidl = 0 bgidl = 2.3E9
+ cgidl = 0.5 egidl = 0.8 noia = 2.5E42
+ noib = 0 noic = 0 em = 4.1E7
+ af = 1 ef = 0.84 kf = 0
+ lintnoi = -1E-7 tnoia = 1.5E7 tnoib = 9.9E6
+ ntnoi = 1 rnoia = 0.94 rnoib = 0.26
+ xpart = 0 cgso = {2.449068E-10/sw_func_tox_lv_ratio} cgdo = {2.449068E-10/sw_func_tox_lv_ratio}
+ cgbo = {1E-13/sw_func_tox_lv_ratio} ckappas = 0.6 cf = 1.4067E-12
+ clc = 1E-7 cle = 0.6 dlc = 9.87908E-9
+ dwc = 0 vfbcv = -1 noff = 3.4037
+ voffcv = -0.17287 acde = 0.4 moin = 6.9
+ cgsl = {0/sw_func_tox_lv_ratio} cgdl = {0/sw_func_tox_lv_ratio} ijthsrev = 0.1
+ ijthsfwd = 0.1 xjbvs = 1 bvs = 11.7
+ jss = 2.75E-3 jsws = 6E-10 cjs = {sw_nsd_pw_cj}
+ mjs = 0.44 mjsws = 9E-4 cjsws = {3.67354204E-11*sw_func_nsd_pw_cj}
+ cjswgs = {2.38232788E-10*sw_func_nsd_pw_cj} mjswgs = 0.8 pbs = 0.729
+ pbsws = 0.2 pbswgs = 0.95578 xrcrg1 = 12
+ xrcrg2 = 1 rbpb = 50 rbpd = 50
+ rbps = 50 rbdb = 50 rbsb = 50
+ gbmin = 1E-12 tnom = 30 ute = -1.7738374468
+ lute = -3.155563048304357E-7 kt1 = -0.31093258826 lkt1 = -1.672924128623665E-8
+ kt1l = 0 kt2 = -0.04419860739172 lkt2 = -8.891234958867991E-9
+ ua1 = 5.718049366400001E-10 lua1 = -1.561607281392023E-15 ub1 = -8.959316669E-19
+ lub1 = 2.044376713581099E-24 uc1 = 1.388679293995998E-12 luc1 = 1.151836488196719E-16
+ at = 1.4E5 prt = 0 njs = 1.2928
+ xtis = 2 tpb = 1.2287E-3 tpbsw = 0
+ tpbswg = 0 tcj = 7.92E-4 tcjsw = 1E-5
+ tcjswg = 0 tvoff = 0 tvfbsdoff = 0
+ saref = 3E-6 sbref = 3E-6 wlod = 0
+ ku0 = -2.7E-8 kvsat = 0.2 kvth0 = 9.8E-9
+ tku0 = 0 llodku0 = 0 wlodku0 = 1
+ llodvth = 0 wlodvth = 1 lku0 = 0
+ wku0 = 0 pku0 = 0 lkvth0 = 0
+ wkvth0 = 2E-7 pkvth0 = 0 stk2 = 0
+ lodk2 = 1 steta0 = 0 lodeta0 = 1

.model nshort_model.3 nmos
+ level = 54 lmin = 2E-6 lmax = 4E-6 wmin = 7E-6
+ wmax = 1.01E-3 version = 4.5
+ binunit = 2 mobmod = 0 capmod = 2
+ rdsmod = 0 igcmod = 0 igbmod = 0
+ rbodymod = 1 trnqsmod = 0 acnqsmod = 0
+ fnoimod = 1 tnoimod = 1 diomod = 1
+ tempmod = 0 permod = 1 geomod = 0
+ rgatemod = 0 epsrox = 3.9 toxe = 4.148E-9
+ toxm = 4.148E-9 dtox = 0 xj = 1.5E-7
+ ndep = 1.7E17 ngate = 9.999999999999999E22 nsd = 1E20
+ rsh = {swx_nrds} rshg = 0.1 phin = 0
+ wint = {2.1859E-8+sw_activecd} wl = 0 wln = 1
+ ww = 0 wwn = 1 wwl = 0
+ lint = {1.1932E-8-sw_polycd} ll = 0 lln = 1
+ lw = 0 lwn = 1 lwl = 0
+ llc = 0 lwc = 0 lwlc = 0
+ wlc = 0 wwc = 0 wwlc = 0
+ dwg = 0 dwb = 0 xl = 0
+ xw = 0 dmcg = 0 dmdg = 0
+ dmcgt = 0 xgw = 0 xgl = 0
+ ngcon = 1 vth0 = 0.518547603504 lvth0 = 2.660510727081945E-8
+ k1 = 0.55001325 k2 = -0.031298059138892 lk2 = -5.444307761202527E-9
+ k3 = 2 k3b = 0.54 w0 = 0
+ lpe0 = 1.0325E-7 lpeb = -7.082E-8 vbm = -3
+ dvtp0 = 0 dvtp1 = 0 dvt0 = 0
+ dvt1 = 0.53 dvt2 = -0.032 dvt0w = -3.58
+ dvt1w = 1.6706E6 dvt2w = 0.068 vfbsdoff = 0
+ u0 = 0.0332068088984 lu0 = -6.615132844448578E-9 ua = -5.832601931146001E-10
+ lua = -6.768609190888065E-16 ub = 1.523794986112E-18 lub = 4.856492823965773E-25
+ uc = 1.185089150800001E-11 luc = 1.234355973629469E-16 ud = 0
+ up = 0 lp = 1 eu = 1.67
+ vsat = 8E4 a0 = 1.249866442836 la0 = -4.430386808816161E-8
+ ags = 0.254250418768 lags = 6.510786765134796E-7 b0 = 0
+ b1 = 0 keta = -3.814351151439999E-3 lketa = 7.286074991482034E-9
+ a1 = 0 a2 = 0.42385546 rdsw = 65.968
+ rdswmin = 0 rdw = 0 rdwmin = 0
+ rsw = 0 rswmin = 0 prwb = 0
+ prwg = 0.021507 wr = 1 voff = -0.10138368469656
+ lvoff = -1.055168297518725E-9 voffl = 5.8197729E-9 minv = 0
+ nfactor = 2.59433840112 lnfactor = 3.188527032043281E-7 eta0 = 0.158551406
+ leta0 = -3.123310732472159E-7 etab = -0.138670043175847 letab = 2.730414307930405E-7
+ dsub = 0.8564204 ldsub = -1.1786078235744E-6 cit = 0
+ cdsc = 0 cdscb = 0 cdscd = 5.4E-3
+ pclm = 0.61455745516 lpclm = -1.094926668100615E-7 pdiblc1 = 0.39
+ pdiblc2 = 1.389224399096801E-3 lpdiblc2 = 6.764845110368845E-9 pdiblcb = -0.025
+ drout = 0.56 pscbe1 = 8E8 pscbe2 = 1E-12
+ pvag = 0 delta = 0.01 fprout = 0
+ pdits = 0 pditsl = 0 pditsd = 0
+ lambda = 0 vtl = 0 lc = 5E-9
+ xn = 3 alpha0 = 3E-8 alpha1 = 0.85
+ beta0 = 13.86 aigbacc = 1 bigbacc = 0
+ cigbacc = 0 nigbacc = 0 aigbinv = 0.35
+ bigbinv = 0.03 cigbinv = 6E-3 eigbinv = 1.1
+ nigbinv = 0 aigc = 0.43 bigc = 0.054
+ cigc = 0.075 aigsd = 0.43 bigsd = 0.054
+ cigsd = 0.075 dlcig = 0 nigc = 0
+ poxedge = 1 pigcd = 1 ntox = 1
+ toxref = 4.148E-9 agidl = 0 bgidl = 2.3E9
+ cgidl = 0.5 egidl = 0.8 noia = 2.5E42
+ noib = 0 noic = 0 em = 4.1E7
+ af = 1 ef = 0.84 kf = 0
+ lintnoi = -1E-7 tnoia = 1.5E7 tnoib = 9.9E6
+ ntnoi = 1 rnoia = 0.94 rnoib = 0.26
+ xpart = 0 cgso = {2.449068E-10/sw_func_tox_lv_ratio} cgdo = {2.449068E-10/sw_func_tox_lv_ratio}
+ cgbo = {1E-13/sw_func_tox_lv_ratio} ckappas = 0.6 cf = 1.4067E-12
+ clc = 1E-7 cle = 0.6 dlc = 9.87908E-9
+ dwc = 0 vfbcv = -1 noff = 3.4037
+ voffcv = -0.17287 acde = 0.4 moin = 6.9
+ cgsl = {0/sw_func_tox_lv_ratio} cgdl = {0/sw_func_tox_lv_ratio} ijthsrev = 0.1
+ ijthsfwd = 0.1 xjbvs = 1 bvs = 11.7
+ jss = 2.75E-3 jsws = 6E-10 cjs = {sw_nsd_pw_cj}
+ mjs = 0.44 mjsws = 9E-4 cjsws = {3.67354204E-11*sw_func_nsd_pw_cj}
+ cjswgs = {2.38232788E-10*sw_func_nsd_pw_cj} mjswgs = 0.8 pbs = 0.729
+ pbsws = 0.2 pbswgs = 0.95578 xrcrg1 = 12
+ xrcrg2 = 1 rbpb = 50 rbpd = 50
+ rbps = 50 rbdb = 50 rbsb = 50
+ gbmin = 1E-12 tnom = 30 ute = -1.9898498044
+ lute = 5.433382066677978E-7 kt1 = -0.30640547888 lkt1 = -3.472964386799237E-8
+ kt1l = 0 kt2 = -0.046434757 ua1 = -1.235654670399999E-10
+ lua1 = 1.203280014014557E-15 ub1 = -2.004199992800001E-19 lub1 = -7.210722664628177E-25
+ uc1 = 2.435133106997601E-11 luc1 = 2.388102243773389E-17 at = 1.6476098408E5
+ lat = -0.098453040195915 prt = 0 njs = 1.2928
+ xtis = 2 tpb = 1.2287E-3 tpbsw = 0
+ tpbswg = 0 tcj = 7.92E-4 tcjsw = 1E-5
+ tcjswg = 0 tvoff = 0 tvfbsdoff = 0
+ saref = 3E-6 sbref = 3E-6 wlod = 0
+ ku0 = -2.7E-8 kvsat = 0.2 kvth0 = 9.8E-9
+ tku0 = 0 llodku0 = 0 wlodku0 = 1
+ llodvth = 0 wlodvth = 1 lku0 = 0
+ wku0 = 0 pku0 = 0 lkvth0 = 0
+ wkvth0 = 2E-7 pkvth0 = 0 stk2 = 0
+ lodk2 = 1 steta0 = 0 lodeta0 = 1

.model nshort_model.4 nmos
+ level = 54 lmin = 1E-6 lmax = 2E-6 wmin = 7E-6
+ wmax = 1.01E-3 version = 4.5
+ binunit = 2 mobmod = 0 capmod = 2
+ rdsmod = 0 igcmod = 0 igbmod = 0
+ rbodymod = 1 trnqsmod = 0 acnqsmod = 0
+ fnoimod = 1 tnoimod = 1 diomod = 1
+ tempmod = 0 permod = 1 geomod = 0
+ rgatemod = 0 epsrox = 3.9 toxe = 4.148E-9
+ toxm = 4.148E-9 dtox = 0 xj = 1.5E-7
+ ndep = 1.7E17 ngate = 9.999999999999999E22 nsd = 1E20
+ rsh = {swx_nrds} rshg = 0.1 phin = 0
+ wint = {2.1859E-8+sw_activecd} wl = 0 wln = 1
+ ww = 0 wwn = 1 wwl = 0
+ lint = {1.1932E-8-sw_polycd} ll = 0 lln = 1
+ lw = 0 lwn = 1 lwl = 0
+ llc = 0 lwc = 0 lwlc = 0
+ wlc = 0 wwc = 0 wwlc = 0
+ dwg = 0 dwb = 0 xl = 0
+ xw = 0 dmcg = 0 dmdg = 0
+ dmcgt = 0 xgw = 0 xgl = 0
+ ngcon = 1 vth0 = 0.5080903920928 lvth0 = 4.72699792001026E-8
+ k1 = 0.51693995598888 lk1 = 6.510428271915861E-8 k2 = -0.021137344468272
+ lk2 = -2.552326180754284E-8 k3 = 2 k3b = 0.54
+ w0 = 0 lpe0 = 1.0325E-7 lpeb = -7.082E-8
+ vbm = -3 dvtp0 = 0 dvtp1 = 0
+ dvt0 = 0 dvt1 = 0.53 dvt2 = -0.032
+ dvt0w = -3.58 dvt1w = 1.6706E6 dvt2w = 0.068
+ vfbsdoff = 0 u0 = 0.0337134753824 lu0 = -7.616374723474404E-9
+ ua = -4.202807300495199E-10 lua = -9.98930503312382E-16 ub = 1.303723306488E-18
+ lub = 9.205408510820295E-25 uc = 8.743424397599998E-11 luc = -2.592738644975672E-17
+ ud = 0 up = 0 lp = 1
+ eu = 1.67 vsat = 6.018443919999999E4 lvsat = 0.039158243057069
+ a0 = 1.365388682704 la0 = -2.725915250919517E-7 ags = 0.281209620648
+ lags = 5.978036271471438E-7 b0 = 0 b1 = 0
+ keta = 0.063267337619048 lketa = -1.252764651286751E-7 a1 = 0
+ a2 = 0.42385546 rdsw = 65.968 rdswmin = 0
+ rdw = 0 rdwmin = 0 rsw = 0
+ rswmin = 0 prwb = 0 prwg = 0.021507
+ wr = 1 voff = -0.08364582852264 lvoff = -3.610758444562427E-8
+ voffl = 5.8197729E-9 minv = 0 nfactor = 2.8687414836808
+ lnfactor = -2.234051067550413E-7 eta0 = -1.482776250000001E-3 leta0 = 3.918235527570001E-9
+ etab = -6.8439114830552E-4 letab = 3.630163379423571E-10 dsub = 0.26
+ cit = 0 cdsc = 0 cdscb = 0
+ cdscd = 5.4E-3 pclm = 0.72262349592 lpclm = -3.230458603333653E-7
+ pdiblc1 = 0.0804062659 lpdiblc1 = 6.117993233294377E-7 pdiblc2 = 5.594452912790401E-3
+ lpdiblc2 = -1.545258343767571E-9 pdiblcb = -0.049216379985545 lpdiblcb = 4.785486027911472E-8
+ drout = 0.8528408 ldrout = -5.786932471488001E-7 pscbe1 = 1.32606452329984E9
+ lpscbe1 = -1.039575042815653E3 pscbe2 = 1E-12 pvag = 0
+ delta = 0.01 fprout = 0 pdits = 0
+ pditsl = 0 pditsd = 0 lambda = 0
+ vtl = 0 lc = 5E-9 xn = 3
+ alpha0 = -2.51771496E-6 lalpha0 = 5.03463125019456E-12 alpha1 = 0.816811376
+ lalpha1 = 6.558523467686407E-8 beta0 = 11.154151007999996 lbeta0 = 5.347125603654916E-6
+ aigbacc = 1 bigbacc = 0 cigbacc = 0
+ nigbacc = 0 aigbinv = 0.35 bigbinv = 0.03
+ cigbinv = 6E-3 eigbinv = 1.1 nigbinv = 0
+ aigc = 0.43 bigc = 0.054 cigc = 0.075
+ aigsd = 0.43 bigsd = 0.054 cigsd = 0.075
+ dlcig = 0 nigc = 0 poxedge = 1
+ pigcd = 1 ntox = 1 toxref = 4.148E-9
+ agidl = 0 bgidl = 2.3E9 cgidl = 0.5
+ egidl = 0.8 noia = 2.5E42 noib = 0
+ noic = 0 em = 4.1E7 af = 1
+ ef = 0.84 kf = 0 lintnoi = -1E-7
+ tnoia = 1.5E7 tnoib = 9.9E6 ntnoi = 1
+ rnoia = 0.94 rnoib = 0.26 xpart = 0
+ cgso = {2.449068E-10/sw_func_tox_lv_ratio} cgdo = {2.449068E-10/sw_func_tox_lv_ratio} cgbo = {1E-13/sw_func_tox_lv_ratio}
+ ckappas = 0.6 cf = 1.4067E-12 clc = 1E-7
+ cle = 0.6 dlc = 9.87908E-9 dwc = 0
+ vfbcv = -1 noff = 3.4037 voffcv = -0.17287
+ acde = 0.4 moin = 6.9 cgsl = {0/sw_func_tox_lv_ratio}
+ cgdl = {0/sw_func_tox_lv_ratio} ijthsrev = 0.1 ijthsfwd = 0.1
+ xjbvs = 1 bvs = 11.7 jss = 2.75E-3
+ jsws = 6E-10 cjs = {sw_nsd_pw_cj} mjs = 0.44
+ mjsws = 9E-4 cjsws = {3.67354204E-11*sw_func_nsd_pw_cj} cjswgs = {2.38232788E-10*sw_func_nsd_pw_cj}
+ mjswgs = 0.8 pbs = 0.729 pbsws = 0.2
+ pbswgs = 0.95578 xrcrg1 = 12 xrcrg2 = 1
+ rbpb = 50 rbpd = 50 rbps = 50
+ rbdb = 50 rbsb = 50 gbmin = 1E-12
+ tnom = 30 ute = -2.52321946026608 lute = 1.59734918493237E-6
+ kt1 = -0.37404601544 lkt1 = 9.893725548753985E-8 kt1l = 0
+ kt2 = -0.066031623371848 lkt2 = 3.869874711599023E-8 ua1 = -1.1925068841624E-9
+ lua1 = 3.315653630281149E-15 ub1 = 3.155993453608003E-19 lub1 = -1.74079667010391E-24
+ uc1 = 1.7468532419304E-11 luc1 = 3.748236863207827E-17 at = 1.65283238064E5
+ lat = -0.099485085094841 prt = 0 njs = 1.2928
+ xtis = 2 tpb = 1.2287E-3 tpbsw = 0
+ tpbswg = 0 tcj = 7.92E-4 tcjsw = 1E-5
+ tcjswg = 0 tvoff = 0 tvfbsdoff = 0
+ saref = 3E-6 sbref = 3E-6 wlod = 0
+ ku0 = -2.7E-8 kvsat = 0.2 kvth0 = 9.8E-9
+ tku0 = 0 llodku0 = 0 wlodku0 = 1
+ llodvth = 0 wlodvth = 1 lku0 = 0
+ wku0 = 0 pku0 = 0 lkvth0 = 0
+ wkvth0 = 2E-7 pkvth0 = 0 stk2 = 0
+ lodk2 = 1 steta0 = 0 lodeta0 = 1

.model nshort_model.5 nmos
+ level = 54 lmin = 5E-7 lmax = 1E-6 wmin = 7E-6
+ wmax = 1.01E-3 version = 4.5
+ binunit = 2 mobmod = 0 capmod = 2
+ rdsmod = 0 igcmod = 0 igbmod = 0
+ rbodymod = 1 trnqsmod = 0 acnqsmod = 0
+ fnoimod = 1 tnoimod = 1 diomod = 1
+ tempmod = 0 permod = 1 geomod = 0
+ rgatemod = 0 epsrox = 3.9 toxe = 4.148E-9
+ toxm = 4.148E-9 dtox = 0 xj = 1.5E-7
+ ndep = 1.7E17 ngate = 9.999999999999999E22 nsd = 1E20
+ rsh = {swx_nrds} rshg = 0.1 phin = 0
+ wint = {2.1859E-8+sw_activecd} wl = 0 wln = 1
+ ww = 0 wwn = 1 wwl = 0
+ lint = {1.1932E-8-sw_polycd} ll = 0 lln = 1
+ lw = 0 lwn = 1 lwl = 0
+ llc = 0 lwc = 0 lwlc = 0
+ wlc = 0 wwc = 0 wwlc = 0
+ dwg = 0 dwb = 0 xl = 0
+ xw = 0 dmcg = 0 dmdg = 0
+ dmcgt = 0 xgw = 0 xgl = 0
+ ngcon = 1 vth0 = 0.5382094278448 lvth0 = 1.786970411728827E-8
+ k1 = 0.67685538541968 lk1 = -9.099492490370467E-8 k2 = -0.084108743215152
+ lk2 = 3.59453874796416E-8 k3 = 2 k3b = 0.54
+ w0 = 0 lpe0 = 1.0325E-7 lpeb = -7.082E-8
+ vbm = -3 dvtp0 = 0 dvtp1 = 0
+ dvt0 = 0 dvt1 = 0.53 dvt2 = -0.032
+ dvt0w = -3.58 dvt1w = 1.6706E6 dvt2w = 0.068
+ vfbsdoff = 0 u0 = 0.028060177904 lu0 = -2.097987536098945E-9
+ ua = -1.287815499504323E-9 lua = -1.520985835958479E-16 ub = 2.22680937888E-18
+ lub = 1.948330472159232E-26 uc = 4.004109772800001E-11 luc = 2.033476975618098E-17
+ ud = 0 up = 0 lp = 1
+ eu = 1.67 vsat = 8.75341272496E4 lvsat = 0.012461227963084
+ a0 = 0.692019044176 la0 = 3.84708820382216E-7 ags = 0.554264922816
+ lags = 3.31264516710081E-7 b0 = 0 b1 = 0
+ keta = -0.101468423037136 lketa = 3.552804133520978E-8 a1 = 0
+ a2 = 0.42385546 rdsw = 65.968 rdswmin = 0
+ rdw = 0 rdwmin = 0 rsw = 0
+ rswmin = 0 prwb = 0 prwg = 0.021507
+ wr = 1 voff = -0.10764602671632 lvoff = -1.268012698163826E-8
+ voffl = 5.8197729E-9 minv = 0 nfactor = 2.4855724494352
+ lnfactor = 1.506199816573214E-7 eta0 = -0.4616715915 leta0 = 4.531251048904439E-7
+ etab = -3.125E-4 dsub = 0.13096570606928 ldsub = 1.259550195403573E-7
+ cit = 0 cdsc = 0 cdscb = 0
+ cdscd = 5.4E-3 pclm = 0.25367674176 lpclm = 1.347099484853606E-7
+ pdiblc1 = 0.4283015482 lpdiblc1 = 2.722062140462447E-7 pdiblc2 = 4.5695576175984E-3
+ lpdiblc2 = -5.448211499000314E-10 pdiblcb = 0.02343275997109 lpdiblcb = -2.306058060159479E-8
+ drout = 0.03264278406992 ldrout = 2.219315633291245E-7 pscbe1 = -2.436478200319994E7
+ lpscbe1 = 278.6276175456356 pscbe2 = 1E-12 pvag = 0
+ delta = 0.01 fprout = 0 pdits = 0
+ pditsl = 0 pditsd = 0 lambda = 0
+ vtl = 0 lc = 5E-9 xn = 3
+ alpha0 = -5.596339199999991E-7 lalpha0 = 3.123277856133119E-12 alpha1 = 0.916377248
+ lalpha1 = -3.160459735372802E-8 beta0 = 14.567474304000003 lbeta0 = 2.015257854790655E-6
+ aigbacc = 1 bigbacc = 0 cigbacc = 0
+ nigbacc = 0 aigbinv = 0.35 bigbinv = 0.03
+ cigbinv = 6E-3 eigbinv = 1.1 nigbinv = 0
+ aigc = 0.43 bigc = 0.054 cigc = 0.075
+ aigsd = 0.43 bigsd = 0.054 cigsd = 0.075
+ dlcig = 0 nigc = 0 poxedge = 1
+ pigcd = 1 ntox = 1 toxref = 4.148E-9
+ agidl = 0 bgidl = 2.3E9 cgidl = 0.5
+ egidl = 0.8 noia = 2.5E42 noib = 0
+ noic = 0 em = 4.1E7 af = 1
+ ef = 0.84 kf = 0 lintnoi = -1E-7
+ tnoia = 1.5E7 tnoib = 9.9E6 ntnoi = 1
+ rnoia = 0.94 rnoib = 0.26 xpart = 0
+ cgso = {2.449068E-10/sw_func_tox_lv_ratio} cgdo = {2.449068E-10/sw_func_tox_lv_ratio} cgbo = {1E-13/sw_func_tox_lv_ratio}
+ ckappas = 0.6 cf = 1.4067E-12 clc = 1E-7
+ cle = 0.6 dlc = 9.87908E-9 dwc = 0
+ vfbcv = -1 noff = 3.4037 voffcv = -0.17287
+ acde = 0.4 moin = 6.9 cgsl = {0/sw_func_tox_lv_ratio}
+ cgdl = {0/sw_func_tox_lv_ratio} ijthsrev = 0.1 ijthsfwd = 0.1
+ xjbvs = 1 bvs = 11.7 jss = 2.75E-3
+ jsws = 6E-10 cjs = {sw_nsd_pw_cj} mjs = 0.44
+ mjsws = 9E-4 cjsws = {3.67354204E-11*sw_func_nsd_pw_cj} cjswgs = {2.38232788E-10*sw_func_nsd_pw_cj}
+ mjswgs = 0.8 pbs = 0.729 pbsws = 0.2
+ pbswgs = 0.95578 xrcrg1 = 12 xrcrg2 = 1
+ rbpb = 50 rbpd = 50 rbps = 50
+ rbdb = 50 rbsb = 50 gbmin = 1E-12
+ tnom = 30 ute = -0.37232496106784 lute = -5.022163679370029E-7
+ kt1 = -0.26882377568 lkt1 = -3.773960742827527E-9 kt1l = 0
+ kt2 = -0.017158188825376 lkt2 = -9.008371788464771E-9 ua1 = 3.2341434902304E-9
+ lua1 = -1.005359159577142E-15 ub1 = -1.7234129065664E-18 lub1 = 2.495565934432993E-25
+ uc1 = 1.22134998482928E-10 luc1 = -6.468633688540339E-17 at = 7.282967913599999E4
+ lat = -9.237837897098495E-3 prt = 0 njs = 1.2928
+ xtis = 2 tpb = 1.2287E-3 tpbsw = 0
+ tpbswg = 0 tcj = 7.92E-4 tcjsw = 1E-5
+ tcjswg = 0 tvoff = 0 tvfbsdoff = 0
+ saref = 2.75E-6 sbref = 2.74E-6 wlod = 0
+ ku0 = -2.7E-8 kvsat = 0.2 kvth0 = 9.8E-9
+ tku0 = 0 llodku0 = 0 wlodku0 = 1
+ llodvth = 0 wlodvth = 1 lku0 = 0
+ wku0 = 0 pku0 = 0 lkvth0 = 0
+ wkvth0 = 2E-7 pkvth0 = 0 stk2 = 0
+ lodk2 = 1 steta0 = 0 lodeta0 = 1

.model nshort_model.6 nmos
+ level = 54 lmin = 2.5E-7 lmax = 5E-7 wmin = 7E-6
+ wmax = 1.01E-3 version = 4.5
+ binunit = 2 mobmod = 0 capmod = 2
+ rdsmod = 0 igcmod = 0 igbmod = 0
+ rbodymod = 1 trnqsmod = 0 acnqsmod = 0
+ fnoimod = 1 tnoimod = 1 diomod = 1
+ tempmod = 0 permod = 1 geomod = 0
+ rgatemod = 0 epsrox = 3.9 toxe = 4.148E-9
+ toxm = 4.148E-9 dtox = 0 xj = 1.5E-7
+ ndep = 1.7E17 ngate = 9.999999999999999E22 nsd = 1E20
+ rsh = {swx_nrds} rshg = 0.1 phin = 0
+ wint = {2.1859E-8+sw_activecd} wl = 0 wln = 1
+ ww = 0 wwn = 1 wwl = 0
+ lint = {1.1932E-8-sw_polycd} ll = 0 lln = 1
+ lw = 0 lwn = 1 lwl = 0
+ llc = 0 lwc = 0 lwlc = 0
+ wlc = 0 wwc = 0 wwlc = 0
+ dwg = 0 dwb = 0 xl = 0
+ xw = 0 dmcg = 0 dmdg = 0
+ dmcgt = 0 xgw = 0 xgl = 0
+ ngcon = 1 vth0 = 0.619842499536 lvth0 = -2.099874010547288E-8
+ k1 = 0.23608175037696 lk1 = 1.188732705909957E-7 k2 = 0.062088194974752
+ lk2 = -3.366423788234651E-8 k3 = 2 k3b = 0.54
+ w0 = 0 lpe0 = 1.0325E-7 lpeb = -7.082E-8
+ vbm = -3 dvtp0 = 0 dvtp1 = 0
+ dvt0 = 0 dvt1 = 0.53 dvt2 = -0.032
+ dvt0w = -3.58 dvt1w = 1.6706E6 dvt2w = 0.068
+ vfbsdoff = 0 u0 = 0.0291195166656 lu0 = -2.602376856692121E-9
+ ua = -1.131158186856954E-9 lua = -2.26688769810516E-16 ub = 1.96890384416E-18
+ lub = 1.422814144010342E-25 uc = 8.1085543584E-11 luc = 7.920314840885738E-19
+ ud = 0 up = 0 lp = 1
+ eu = 1.67 vsat = 9.20231471392E4 lvsat = 0.01032384398893
+ a0 = 1.5 ags = 2.363013351136 lags = -5.299457249564905E-7
+ b0 = 0 b1 = 0 keta = -0.016261925814048
+ lketa = -5.04183942660244E-9 a1 = 0 a2 = 0.42385546
+ rdsw = 65.968 rdswmin = 0 rdw = 0
+ rdwmin = 0 rsw = 0 rswmin = 0
+ prwb = 0 prwg = 0.021507 wr = 1
+ voff = -0.12699208835136 lvoff = -3.468770578976856E-9 voffl = 5.8197729E-9
+ minv = 0 nfactor = 2.781656050751999 lnfactor = 9.643920060745905E-9
+ eta0 = 0.49 etab = 2.097234539241599E-4 letab = -2.486493864576338E-10
+ dsub = 0.24857689844288 ldsub = 6.99560968483609E-8 cit = 0
+ cdsc = 0 cdscb = 0 cdscd = 5.4E-3
+ pclm = 0.64931522784 lpclm = -5.366777772282621E-8 pdiblc1 = 1.79766578554656
+ lpdiblc1 = -3.797973964669969E-7 pdiblc2 = 4.2262572879392E-3 lpdiblc2 = -3.813635041374189E-10
+ pdiblcb = 0.1559088 lpdiblcb = -8.61371923968E-8 drout = 0.04535187186016
+ ldrout = 2.158803091050309E-7 pscbe1 = 3.4447147080704E8 lpscbe1 = 103.0113994775792
+ pscbe2 = 1E-12 pvag = 0 delta = 0.01
+ fprout = 0 pdits = 0 pditsl = 0
+ pditsd = 0 lambda = 0 vtl = 0
+ lc = 5E-9 xn = 3 alpha0 = 9.03926784E-6
+ lalpha0 = -1.44710483226624E-12 alpha1 = 0.85 beta0 = 18.504214112000003
+ lbeta0 = 1.408343095687672E-7 aigbacc = 1 bigbacc = 0
+ cigbacc = 0 nigbacc = 0 aigbinv = 0.35
+ bigbinv = 0.03 cigbinv = 6E-3 eigbinv = 1.1
+ nigbinv = 0 aigc = 0.43 bigc = 0.054
+ cigc = 0.075 aigsd = 0.43 bigsd = 0.054
+ cigsd = 0.075 dlcig = 0 nigc = 0
+ poxedge = 1 pigcd = 1 ntox = 1
+ toxref = 4.148E-9 agidl = 0 bgidl = 2.3E9
+ cgidl = 0.5 egidl = 0.8 noia = 2.5E42
+ noib = 0 noic = 0 em = 4.1E7
+ af = 1 ef = 0.84 kf = 0
+ lintnoi = -1E-7 tnoia = 1.5E7 tnoib = 9.9E6
+ ntnoi = 1 rnoia = 0.94 rnoib = 0.26
+ xpart = 0 cgso = {2.449068E-10/sw_func_tox_lv_ratio} cgdo = {2.449068E-10/sw_func_tox_lv_ratio}
+ cgbo = {1E-13/sw_func_tox_lv_ratio} ckappas = 0.6 cf = 1.4067E-12
+ clc = 1E-7 cle = 0.6 dlc = 9.87908E-9
+ dwc = 0 vfbcv = -1 noff = 3.4037
+ voffcv = -0.17287 acde = 0.4 moin = 6.9
+ cgsl = {0/sw_func_tox_lv_ratio} cgdl = {0/sw_func_tox_lv_ratio} ijthsrev = 0.1
+ ijthsfwd = 0.1 xjbvs = 1 bvs = 11.7
+ jss = 2.75E-3 jsws = 6E-10 cjs = {sw_nsd_pw_cj}
+ mjs = 0.44 mjsws = 9E-4 cjsws = {3.67354204E-11*sw_func_nsd_pw_cj}
+ cjswgs = {2.38232788E-10*sw_func_nsd_pw_cj} mjswgs = 0.8 pbs = 0.729
+ pbsws = 0.2 pbswgs = 0.95578 xrcrg1 = 12
+ xrcrg2 = 1 rbpb = 50 rbpd = 50
+ rbps = 50 rbdb = 50 rbsb = 50
+ gbmin = 1E-12 tnom = 30 ute = -1.93202640173856
+ lute = 2.40413637218191E-7 kt1 = -0.26326140369024 lkt1 = -6.422406292543893E-9
+ kt1l = 0 kt2 = -0.032574405333824 lkt2 = -1.668156124998376E-9
+ ua1 = 8.170587259455999E-10 lua1 = 1.455019117503658E-16 ub1 = -1.5900272984864E-18
+ lub1 = 1.860469035545205E-25 uc1 = -1.0760097217472E-10 luc1 = 4.469922923964648E-17
+ at = 7.8306200981152E4 lat = -0.011845407102362 prt = 0
+ njs = 1.2928 xtis = 2 tpb = 1.2287E-3
+ tpbsw = 0 tpbswg = 0 tcj = 7.92E-4
+ tcjsw = 1E-5 tcjswg = 0 tvoff = 0
+ tvfbsdoff = 0 saref = 1.75E-6 sbref = 1.74E-6
+ wlod = 0 ku0 = -2.7E-8 kvsat = 0.2
+ kvth0 = 9.8E-9 tku0 = 0 llodku0 = 0
+ wlodku0 = 1 llodvth = 0 wlodvth = 1
+ lku0 = 0 wku0 = 0 pku0 = 0
+ lkvth0 = 0 wkvth0 = 2E-7 pkvth0 = 0
+ stk2 = 0 lodk2 = 1 steta0 = 0
+ lodeta0 = 1

.model nshort_model.7 nmos
+ level = 54 lmin = 1.8E-7 lmax = 2.5E-7 wmin = 7E-6
+ wmax = 1.01E-3 version = 4.5
+ binunit = 2 mobmod = 0 capmod = 2
+ rdsmod = 0 igcmod = 0 igbmod = 0
+ rbodymod = 1 trnqsmod = 0 acnqsmod = 0
+ fnoimod = 1 tnoimod = 1 diomod = 1
+ tempmod = 0 permod = 1 geomod = 0
+ rgatemod = 0 epsrox = 3.9 toxe = 4.148E-9
+ toxm = 4.148E-9 dtox = 0 xj = 1.5E-7
+ ndep = 1.7E17 ngate = 9.999999999999999E22 nsd = 1E20
+ rsh = {swx_nrds} rshg = 0.1 phin = 0
+ wint = {2.1859E-8+sw_activecd} wl = 0 wln = 1
+ ww = 0 wwn = 1 wwl = 0
+ lint = {1.1932E-8-sw_polycd} ll = 0 lln = 1
+ lw = 0 lwn = 1 lwl = 0
+ llc = 0 lwc = 0 lwlc = 0
+ wlc = 0 wwc = 0 wwlc = 0
+ dwg = 0 dwb = 0 xl = 0
+ xw = 0 dmcg = 0 dmdg = 0
+ dmcgt = 0 xgw = 0 xgl = 0
+ ngcon = 1 vth0 = 0.65652651648 lvth0 = -2.929431696112129E-8
+ k1 = 0.482996222366857 lk1 = 6.30370195530884E-8 k2 = -5.405528737371407E-3
+ lk2 = -1.840147717698178E-8 k3 = 2 k3b = 0.54
+ w0 = 0 lpe0 = 1.0325E-7 lpeb = -7.082E-8
+ vbm = -3 dvtp0 = 0 dvtp1 = 0
+ dvt0 = 0 dvt1 = 0.53 dvt2 = -0.032
+ dvt0w = -3.58 dvt1w = 1.6706E6 dvt2w = 0.068
+ vfbsdoff = 0 u0 = -9.249914388571437E-3 lu0 = 6.07433280417399E-9
+ ua = -5.182469379794288E-9 lua = 6.894585381155608E-16 ub = 4.782295578628572E-18
+ lub = -4.939277388647507E-25 uc = 8.054853862857142E-11 luc = 9.134676366893717E-19
+ ud = 0 up = 0 lp = 1
+ eu = 1.67 vsat = 1.143149747977143E5 lvsat = 5.282859249544082E-3
+ a0 = 1.5 ags = -2.725047682628572 lags = 6.206480449748947E-7
+ b0 = 0 b1 = 0 keta = -0.037026358549829
+ lketa = -3.462536654639678E-10 a1 = 0 a2 = 0.42385546
+ rdsw = 65.968 rdswmin = 0 rdw = 0
+ rdwmin = 0 rsw = 0 rswmin = 0
+ prwb = 0 prwg = 0.021507 wr = 1