* Copyright 2020 The SkyWater PDK Authors
*
* Licensed under the Apache License, Version 2.0 (the "License");
* you may not use this file except in compliance with the License.
* You may obtain a copy of the License at
*
*     https://www.apache.org/licenses/LICENSE-2.0
*
* Unless required by applicable law or agreed to in writing, software
* distributed under the License is distributed on an "AS IS" BASIS,
* WITHOUT WARRANTIES OR CONDITIONS OF ANY KIND, either express or implied.
* See the License for the specific language governing permissions and
* limitations under the License.

******************************************************************
******************************************************************
*  *****************************************************
*  04/14/2021 Usman Suriono
*      Why     : New scalable sky130_fd_pr__pfet_01v8 low VT model
*      What    : Converted from discrete plowvt models
*                Replaced rsh from 1 to calculated rsh from the original model.
*                PDK netlist nrd/nrs = ratio of distance the middle of the contact to Gate.
*
*  *****************************************************
*
*  Pmos Low VT Model
*  -----------------------------------------------------

.subckt  sky130_fd_pr__pfet_01v8_lvt  d g s b  mult=1
+ 
.param  l = 1 w = 1 nf = 1 ad = 0 as = 0 pd = 0 ps = 0 nrd = {0.14/w} nrs = {0.14/w} sa = 0 sb = 0 sd = 0
+ swx_nrds = {361*nf/w+1489}

Msky130_fd_pr__pfet_01v8_lvt  d g s b plowvt_model l = {l} w = {w} ad = {ad} as = {as} pd = {pd} ps = {ps} nrd = {nrd} nrs = {nrs} sa = {sa} sb = {sb} sd = {sd} nf = {nf}
* + deltox = 0.3*(sw_tox_lv_corner - sw_tox_lv_nom) + sw_tox_lv_mc + sw_mm_tox_lv * mismatch_factor*MC_MM_SWITCH*AGAUSS(0,1.0,1)/sqrt(l*w*mult)
* + mulu0  = sw_u0_sky130_fd_pr__pfet_01v8_lvt
+ delvto = {(sw_vth0_sky130_fd_pr__pfet_01v8_lvt+sw_vth0_sky130_fd_pr__pfet_01v8_lvt_mc)*(0.005*8/l+0.995)*(0.008*7/w+0.992)*(0.0006*56/(w*l)+0.9994)+sw_mm_vth0_sky130_fd_pr__pfet_01v8_lvt*mismatch_factor*MC_MM_SWITCH*AGAUSS(0,1.0,1)/sqrt(l*w*mult)+sw_vth0_sky130_fd_pr__pfet_01v8_lvt_mc}



.model plowvt_model.1 pmos
+ level = 54 lmin = 8E-6 lmax = 2.02E-5 wmin = 7E-6
+ wmax = 1.01E-3 version = 4.5
+ binunit = 2 mobmod = 0 capmod = 2
+ rdsmod = 0 igcmod = 0 igbmod = 0
+ rbodymod = 1 trnqsmod = 0 acnqsmod = 0
+ fnoimod = 1 tnoimod = 1 diomod = 1
+ tempmod = 0 permod = 1 geomod = 0
+ rgatemod = 0 epsrox = 3.9 toxe = 4.23E-9
+ toxm = 4.23E-9 dtox = 0 xj = 1.5E-7
+ ndep = 1.7E17 ngate = 9.999999999999999E22 nsd = 1E20
+ rsh = {swx_nrds} rshg = 0.1 phin = 0
+ wint = {7.476E-9+sw_activecd} wl = 0 wln = 1
+ ww = 0 wwn = 1 wwl = 0
+ lint = {2.8E-9-sw_polycd} ll = 0 lln = 1
+ lw = 0 lwn = 1 lwl = 0
+ llc = 0 lwc = 0 lwlc = 0
+ wlc = 0 wwc = 0 wwlc = 0
+ dwg = -7.916E-9 dwb = 0 xl = 0
+ xw = 0 dmcg = 0 dmdg = 0
+ dmcgt = 0 xgw = 0 xgl = 0
+ ngcon = 1 vth0 = -0.452509 k1 = 0.64774
+ k2 = -0.04782713 k3 = 3.39 k3b = 1
+ w0 = 1E-8 lpe0 = 0 lpeb = 0
+ vbm = -3 dvtp0 = 0 dvtp1 = 0
+ dvt0 = 2.4422 dvt1 = 0.16136 dvt2 = 0.026237
+ dvt0w = 0.5 dvt1w = 1.9281E6 dvt2w = -0.032
+ vfbsdoff = 0 u0 = 2.5322839E-3 ua = -3.0054E-9
+ ub = 3.0419E-18 uc = 4.9353E-11 ud = 0
+ up = 0 lp = 1 eu = 1.67
+ vsat = 1.2376E5 a0 = 1.75209 ags = 0.385036
+ b0 = 0 b1 = 2.1073E-24 keta = -0.01258
+ a1 = 0 a2 = 0.46703705 rdsw = 484.7
+ rdswmin = 0 rdw = 0 rdwmin = 0
+ rsw = 0 rswmin = 0 prwb = 0.1
+ prwg = 0.052 wr = 1 voff = -0.1819
+ voffl = 0 minv = 0 nfactor = 2.5373
+ eta0 = 0.2 etab = -2.5E-4 dsub = 1
+ cit = -6.393105E-11 cdsc = 2.8125E-7 cdscb = 1E-4
+ cdscd = 1E-10 pclm = 0.030097 pdiblc1 = 0
+ pdiblc2 = 1.8466E-3 pdiblcb = -0.025 drout = 0.43496
+ pscbe1 = 8E8 pscbe2 = 8.6797E-9 pvag = 0
+ delta = 0.01363 fprout = 0 pdits = 0
+ pditsl = 0 pditsd = 0 lambda = 0
+ vtl = 0 lc = 5E-9 xn = 3
+ alpha0 = 5.0449517E-13 alpha1 = -4.0583656E-18 beta0 = 6.2016506
+ aigbacc = 0.43 bigbacc = 0.054 cigbacc = 0.075
+ nigbacc = 1 aigbinv = 0.35 bigbinv = 0.03
+ cigbinv = 6E-3 eigbinv = 1.1 nigbinv = 3
+ aigc = 0.43 bigc = 0.054 cigc = 0.075
+ aigsd = 0.43 bigsd = 0.054 cigsd = 0.075
+ dlcig = 0 nigc = 1 poxedge = 1
+ pigcd = 1 ntox = 1 toxref = 4.23E-9
+ agidl = 0 bgidl = 2.3E9 cgidl = 0.5
+ egidl = 0.8 noia = 3E41 noib = 0
+ noic = 0 em = 4.1E7 af = 1
+ ef = 0.88 kf = 0 lintnoi = 0
+ tnoia = 2.5E7 tnoib = 0 ntnoi = 1
+ rnoia = 0.69 rnoib = 0.34 xpart = 0
+ cgso = {2E-11/sw_func_tox_lv_ratio} cgdo = {2E-11/sw_func_tox_lv_ratio} cgbo = {1E-13/sw_func_tox_lv_ratio}
+ ckappas = 0.6 cf = 0 clc = 7E-8
+ cle = 0.492 dlc = -1.2E-8 dwc = 0
+ vfbcv = -1 noff = 2.6123 voffcv = 0.112
+ acde = 0.44 moin = 8.7 cgsl = {0/sw_func_tox_lv_ratio}
+ cgdl = {0/sw_func_tox_lv_ratio} ijthsrev = 0.1 ijthsfwd = 0.1
+ xjbvs = 1 bvs = 12.69 jss = 2.1483E-5
+ jsws = 1.4472E-10 cjs = {7.682E-04*sw_func_psd_nw_cj} mjs = 0.3362
+ mjsws = 0.2659 cjsws = {9.160236799999998E-11*sw_func_psd_nw_cj} cjswgs = {2.39155046E-10*sw_func_psd_nw_cj}
+ mjswgs = 0.9274 pbs = 0.6587 pbsws = 0.7418
+ pbswgs = 1.4338 xrcrg1 = 12 xrcrg2 = 1
+ rbpb = 50 rbpd = 50 rbps = 50
+ rbdb = 50 rbsb = 50 gbmin = 1E-12
+ tnom = 30 ute = -0.22271 kt1 = -0.60135
+ kt1l = 0 kt2 = -0.055045 ua1 = 6.8217E-10
+ ub1 = -1.4864E-19 uc1 = -9.961E-12 at = 2.856E5
+ prt = 0 njs = 1.3632 xtis = 5.2
+ tpb = 1.671E-3 tpbsw = 1.246E-3 tpbswg = 0
+ tcj = 1.2407E-3 tcjsw = 3.7357E-4 tcjswg = 2E-12
+ tvoff = 0 tvfbsdoff = 0 saref = 3E-6
+ sbref = 3E-6 wlod = 0 ku0 = 5.9E-8
+ kvsat = 0 kvth0 = 1.76E-8 tku0 = 0
+ llodku0 = 0 wlodku0 = 1 llodvth = 0
+ wlodvth = 1 lku0 = 0 wku0 = 0
+ pku0 = 0 lkvth0 = 0 wkvth0 = 7.3E-7
+ pkvth0 = 0 stk2 = 0 lodk2 = 1
+ steta0 = 0 lodeta0 = 1

.model plowvt_model.2 pmos
+ level = 54 lmin = 4E-6 lmax = 8E-6 wmin = 7E-6
+ wmax = 1.01E-3 version = 4.5
+ binunit = 2 mobmod = 0 capmod = 2
+ rdsmod = 0 igcmod = 0 igbmod = 0
+ rbodymod = 1 trnqsmod = 0 acnqsmod = 0
+ fnoimod = 1 tnoimod = 1 diomod = 1
+ tempmod = 0 permod = 1 geomod = 0
+ rgatemod = 0 epsrox = 3.9 toxe = 4.23E-9
+ toxm = 4.23E-9 dtox = 0 xj = 1.5E-7
+ ndep = 1.7E17 ngate = 9.999999999999999E22 nsd = 1E20
+ rsh = {swx_nrds} rshg = 0.1 phin = 0
+ wint = {7.476E-9+sw_activecd} wl = 0 wln = 1
+ ww = 0 wwn = 1 wwl = 0
+ lint = {2.8E-9-sw_polycd} ll = 0 lln = 1
+ lw = 0 lwn = 1 lwl = 0
+ llc = 0 lwc = 0 lwlc = 0
+ wlc = 0 wwc = 0 wwlc = 0
+ dwg = -7.916E-9 dwb = 0 xl = 0
+ xw = 0 dmcg = 0 dmdg = 0
+ dmcgt = 0 xgw = 0 xgl = 0
+ ngcon = 1 vth0 = -0.461935784 lvth0 = 7.536148200960002E-8
+ k1 = 0.64774 k2 = -0.048941198118 lk2 = 8.906306162539194E-9
+ k3 = 3.39 k3b = 1 w0 = 1E-8
+ lpe0 = 0 lpeb = 0 vbm = -3
+ dvtp0 = 0 dvtp1 = 0 dvt0 = 2.4422
+ dvt1 = 0.16136 dvt2 = 0.026237 dvt0w = 0.5
+ dvt1w = 1.9281E6 dvt2w = -0.032 vfbsdoff = 0
+ u0 = 2.45070417174E-3 lu0 = 6.521809796017425E-10 ua = -3.06421754E-9
+ lua = 4.702109417759989E-16 ub = 3.13097512E-18 lub = -7.121021393279989E-25
+ uc = 3.779220780000001E-11 luc = 9.242159716367999E-17 ud = 0
+ up = 0 lp = 1 eu = 1.67
+ vsat = 1.2376E5 a0 = 1.841424756 la0 = -7.141777733663988E-7
+ ags = 0.3685411252 lags = 1.318666271011202E-7 b0 = 0
+ b1 = 2.1073E-24 keta = -0.01258 a1 = 0
+ a2 = 0.46703705 rdsw = 484.7 rdswmin = 0
+ rdw = 0 rdwmin = 0 rsw = 0
+ rswmin = 0 prwb = 0.1 prwg = 0.052
+ wr = 1 voff = -0.1819 voffl = 0
+ minv = 0 nfactor = 2.5373 eta0 = 0.2
+ etab = -2.5E-4 dsub = 1 cit = -6.393105E-11
+ cdsc = 2.8125E-7 cdscb = 1E-4 cdscd = 1E-10
+ pclm = 0.030097 pdiblc1 = 0 pdiblc2 = 7.488388000000037E-5
+ lpdiblc2 = 1.4163807349728E-8 pdiblcb = -0.025 drout = 0.43496
+ pscbe1 = 8E8 pscbe2 = 8.6797E-9 pvag = 0
+ delta = 5.8598934E-3 ldelta = 6.211734020304E-8 fprout = 0
+ pdits = 0 pditsl = 0 pditsd = 0
+ lambda = 0 vtl = 0 lc = 5E-9
+ xn = 3 alpha0 = 5.0449517E-13 alpha1 = -4.0583656E-18
+ beta0 = 6.2016506 aigbacc = 0.43 bigbacc = 0.054
+ cigbacc = 0.075 nigbacc = 1 aigbinv = 0.35
+ bigbinv = 0.03 cigbinv = 6E-3 eigbinv = 1.1
+ nigbinv = 3 aigc = 0.43 bigc = 0.054
+ cigc = 0.075 aigsd = 0.43 bigsd = 0.054
+ cigsd = 0.075 dlcig = 0 nigc = 1
+ poxedge = 1 pigcd = 1 ntox = 1
+ toxref = 4.23E-9 agidl = 0 bgidl = 2.3E9
+ cgidl = 0.5 egidl = 0.8 noia = 3E41
+ noib = 0 noic = 0 em = 4.1E7
+ af = 1 ef = 0.88 kf = 0
+ lintnoi = 0 tnoia = 2.5E7 tnoib = 0
+ ntnoi = 1 rnoia = 0.69 rnoib = 0.34
+ xpart = 0 cgso = {2E-11/sw_func_tox_lv_ratio} cgdo = {2E-11/sw_func_tox_lv_ratio}
+ cgbo = {1E-13/sw_func_tox_lv_ratio} ckappas = 0.6 cf = 0
+ clc = 7E-8 cle = 0.492 dlc = -1.2E-8
+ dwc = 0 vfbcv = -1 noff = 2.6123
+ voffcv = 0.112 acde = 0.44 moin = 8.7
+ cgsl = {0/sw_func_tox_lv_ratio} cgdl = {0/sw_func_tox_lv_ratio} ijthsrev = 0.1
+ ijthsfwd = 0.1 xjbvs = 1 bvs = 12.69
+ jss = 2.1483E-5 jsws = 1.4472E-10 cjs = {7.682E-04*sw_func_psd_nw_cj}
+ mjs = 0.3362 mjsws = 0.2659 cjsws = {9.160236799999998E-11*sw_func_psd_nw_cj}
+ cjswgs = {2.39155046E-10*sw_func_psd_nw_cj} mjswgs = 0.9274 pbs = 0.6587
+ pbsws = 0.7418 pbswgs = 1.4338 xrcrg1 = 12
+ xrcrg2 = 1 rbpb = 50 rbpd = 50
+ rbps = 50 rbdb = 50 rbsb = 50
+ gbmin = 1E-12 tnom = 30 ute = -0.312314378
+ lute = 7.163332394831999E-7 kt1 = -0.611336 lkt1 = 7.983207840000006E-8
+ kt1l = 0 kt2 = -0.055045 ua1 = 6.68269488E-10
+ lua1 = 1.111262531327999E-16 ub1 = -1.75362536E-19 lub1 = 2.136306417984E-25
+ uc1 = -9.961E-12 at = 2.99170974E5 lat = -0.1084917945456
+ prt = 0 njs = 1.3632 xtis = 5.2
+ tpb = 1.671E-3 tpbsw = 1.246E-3 tpbswg = 0
+ tcj = 1.2407E-3 tcjsw = 3.7357E-4 tcjswg = 2E-12
+ tvoff = 0 tvfbsdoff = 0 saref = 3E-6
+ sbref = 3E-6 wlod = 0 ku0 = 5.9E-8
+ kvsat = 0 kvth0 = 1.76E-8 tku0 = 0
+ llodku0 = 0 wlodku0 = 1 llodvth = 0
+ wlodvth = 1 lku0 = 0 wku0 = 0
+ pku0 = 0 lkvth0 = 0 wkvth0 = 7.3E-7
+ pkvth0 = 0 stk2 = 0 lodk2 = 1
+ steta0 = 0 lodeta0 = 1

.model plowvt_model.3 pmos
+ level = 54 lmin = 2E-6 lmax = 4E-6 wmin = 7E-6
+ wmax = 1.01E-3 version = 4.5
+ binunit = 2 mobmod = 0 capmod = 2
+ rdsmod = 0 igcmod = 0 igbmod = 0
+ rbodymod = 1 trnqsmod = 0 acnqsmod = 0
+ fnoimod = 1 tnoimod = 1 diomod = 1
+ tempmod = 0 permod = 1 geomod = 0
+ rgatemod = 0 epsrox = 3.9 toxe = 4.23E-9
+ toxm = 4.23E-9 dtox = 0 xj = 1.5E-7
+ ndep = 1.7E17 ngate = 9.999999999999999E22 nsd = 1E20
+ rsh = {swx_nrds} rshg = 0.1 phin = 0
+ wint = {7.476E-9+sw_activecd} wl = 0 wln = 1
+ ww = 0 wwn = 1 wwl = 0
+ lint = {2.8E-9-sw_polycd} ll = 0 lln = 1
+ lw = 0 lwn = 1 lwl = 0
+ llc = 0 lwc = 0 lwlc = 0
+ wlc = 0 wwc = 0 wwlc = 0
+ dwg = -7.916E-9 dwb = 0 xl = 0
+ xw = 0 dmcg = 0 dmdg = 0
+ dmcgt = 0 xgw = 0 xgl = 0
+ ngcon = 1 vth0 = -0.4223840804 lvth0 = -8.262384285024005E-8
+ k1 = 0.64774 k2 = -0.03968662488 lk2 = -2.806016117932799E-8
+ k3 = 3.39 k3b = 1 w0 = 1E-8
+ lpe0 = 0 lpeb = 0 vbm = -3
+ dvtp0 = 0 dvtp1 = 0 dvt0 = 2.4422
+ dvt1 = 0.16136 dvt2 = 0.026237 dvt0w = 0.5
+ dvt1w = 1.9281E6 dvt2w = -0.032 vfbsdoff = 0
+ u0 = 2.32024516128E-3 lu0 = 1.173286450983169E-9 ua = -3.11313212E-9
+ lua = 6.655953401279998E-16 ub = 3.17587336E-18 lub = -8.914436691839996E-25
+ uc = 6.136577640000001E-11 luc = -1.740665252160002E-18 ud = 0
+ up = 0 lp = 1 eu = 1.67
+ vsat = 1.566795664E5 lvsat = -0.13149391602816 a0 = 2.2627309992
+ la0 = -2.397043431204481E-6 ags = 0.4230875368 lags = -8.601355939392001E-8
+ b0 = 0 b1 = 2.1073E-24 keta = -0.01258
+ a1 = 0 a2 = 0.46703705 rdsw = 484.7
+ rdswmin = 0 rdw = 0 rdwmin = 0
+ rsw = 0 rswmin = 0 prwb = 0.1
+ prwg = 0.052 wr = 1 voff = -0.1819
+ voffl = 0 minv = 0 nfactor = 2.5373
+ eta0 = 0.2 etab = -2.5E-4 dsub = 1
+ cit = -6.393105E-11 cdsc = 2.8125E-7 cdscb = 1E-4
+ cdscd = 1E-10 pclm = 0.030097 pdiblc1 = 0
+ pdiblc2 = 2.638259200000003E-4 lpdiblc2 = 1.3409097265152E-8 pdiblcb = -0.025
+ drout = 0.43496 pscbe1 = 8E8 pscbe2 = 8.6797E-9
+ pvag = 0 delta = 0.0196798608 ldelta = 6.914862420480005E-9
+ fprout = 0 pdits = 0 pditsl = 0
+ pditsd = 0 lambda = 0 vtl = 0
+ lc = 5E-9 xn = 3 alpha0 = 5.0449517E-13
+ alpha1 = -4.0583656E-18 beta0 = 6.2016506 aigbacc = 0.43
+ bigbacc = 0.054 cigbacc = 0.075 nigbacc = 1
+ aigbinv = 0.35 bigbinv = 0.03 cigbinv = 6E-3
+ eigbinv = 1.1 nigbinv = 3 aigc = 0.43
+ bigc = 0.054 cigc = 0.075 aigsd = 0.43
+ bigsd = 0.054 cigsd = 0.075 dlcig = 0
+ nigc = 1 poxedge = 1 pigcd = 1
+ ntox = 1 toxref = 4.23E-9 agidl = 0
+ bgidl = 2.3E9 cgidl = 0.5 egidl = 0.8
+ noia = 3E41 noib = 0 noic = 0
+ em = 4.1E7 af = 1 ef = 0.88
+ kf = 0 lintnoi = 0 tnoia = 2.5E7
+ tnoib = 0 ntnoi = 1 rnoia = 0.69
+ rnoib = 0.34 xpart = 0 cgso = {2E-11/sw_func_tox_lv_ratio}
+ cgdo = {2E-11/sw_func_tox_lv_ratio} cgbo = {1E-13/sw_func_tox_lv_ratio} ckappas = 0.6
+ cf = 0 clc = 7E-8 cle = 0.492
+ dlc = -1.2E-8 dwc = 0 vfbcv = -1
+ noff = 2.6123 voffcv = 0.112 acde = 0.44
+ moin = 8.7 cgsl = {0/sw_func_tox_lv_ratio} cgdl = {0/sw_func_tox_lv_ratio}
+ ijthsrev = 0.1 ijthsfwd = 0.1 xjbvs = 1
+ bvs = 12.69 jss = 2.1483E-5 jsws = 1.4472E-10
+ cjs = {7.682E-04*sw_func_psd_nw_cj} mjs = 0.3362 mjsws = 0.2659
+ cjsws = {9.160236799999998E-11*sw_func_psd_nw_cj} cjswgs = {2.39155046E-10*sw_func_psd_nw_cj} mjswgs = 0.9274
+ pbs = 0.6587 pbsws = 0.7418 pbswgs = 1.4338
+ xrcrg1 = 12 xrcrg2 = 1 rbpb = 50
+ rbpd = 50 rbps = 50 rbdb = 50
+ rbsb = 50 gbmin = 1E-12 tnom = 30
+ ute = -0.13298 kt1 = -0.59135 kt1l = 0
+ kt2 = -0.055045 ua1 = 6.9609E-10 ub1 = -1.57126034E-19
+ lub1 = 1.407867582096E-25 uc1 = -9.961E-12 at = 3.78032304E5
+ lat = -0.4234954910976 prt = 0 njs = 1.3632
+ xtis = 5.2 tpb = 1.671E-3 tpbsw = 1.246E-3
+ tpbswg = 0 tcj = 1.2407E-3 tcjsw = 3.7357E-4
+ tcjswg = 2E-12 tvoff = 0 tvfbsdoff = 0
+ saref = 3E-6 sbref = 3E-6 wlod = 0
+ ku0 = 5.9E-8 kvsat = 0 kvth0 = 1.76E-8
+ tku0 = 0 llodku0 = 0 wlodku0 = 1
+ llodvth = 0 wlodvth = 1 lku0 = 0
+ wku0 = 0 pku0 = 0 lkvth0 = 0
+ wkvth0 = 7.3E-7 pkvth0 = 0 stk2 = 0
+ lodk2 = 1 steta0 = 0 lodeta0 = 1

.model plowvt_model.4 pmos
+ level = 54 lmin = 1.5E-6 lmax = 2E-6 wmin = 7E-6
+ wmax = 1.01E-3 version = 4.5
+ binunit = 2 mobmod = 0 capmod = 2
+ rdsmod = 0 igcmod = 0 igbmod = 0
+ rbodymod = 1 trnqsmod = 0 acnqsmod = 0
+ fnoimod = 1 tnoimod = 1 diomod = 1
+ tempmod = 0 permod = 1 geomod = 0
+ rgatemod = 0 epsrox = 3.9 toxe = 4.23E-9
+ toxm = 4.23E-9 dtox = 0 xj = 1.5E-7
+ ndep = 1.7E17 ngate = 9.999999999999999E22 nsd = 1E20
+ rsh = {swx_nrds} rshg = 0.1 phin = 0
+ wint = {7.476E-9+sw_activecd} wl = 0 wln = 1
+ ww = 0 wwn = 1 wwl = 0
+ lint = {2.8E-9-sw_polycd} ll = 0 lln = 1
+ lw = 0 lwn = 1 lwl = 0
+ llc = 0 lwc = 0 lwlc = 0
+ wlc = 0 wwc = 0 wwlc = 0
+ dwg = -7.916E-9 dwb = 0 xl = 0
+ xw = 0 dmcg = 0 dmdg = 0
+ dmcgt = 0 xgw = 0 xgl = 0
+ ngcon = 1 vth0 = -0.4703903488 lvth0 = 1.311985884672005E-8
+ k1 = 0.64774 k2 = -0.04752564752 lk2 = -1.242601442611199E-8
+ k3 = 3.39 k3b = 1 w0 = 1E-8
+ lpe0 = 0 lpeb = 0 vbm = -3
+ dvtp0 = 0 dvtp1 = 0 dvt0 = 2.4422
+ dvt1 = 0.16136 dvt2 = 0.026237 dvt0w = 0.5
+ dvt1w = 1.9281E6 dvt2w = -0.032 vfbsdoff = 0
+ u0 = 3.15488624448E-3 lu0 = -4.913217253509119E-10 ua = -2.23484064E-9
+ lua = -1.086069187584E-15 ub = 1.831961120000001E-18 lub = 1.788854902271998E-24
+ uc = 2.748768160000001E-11 luc = 6.582580701695997E-17 ud = 0
+ up = 0 lp = 1 eu = 1.67
+ vsat = 9.0748E4 a0 = 1.1005741184 la0 = -7.923774813696E-8
+ ags = 0.167247104 lags = 4.242345997823998E-7 b0 = 0
+ b1 = 2.1073E-24 keta = -0.01258 a1 = 0
+ a2 = 0.46703705 rdsw = 484.7 rdswmin = 0
+ rdw = 0 rdwmin = 0 rsw = 0
+ rswmin = 0 prwb = 0.1 prwg = 0.052
+ wr = 1 voff = -0.1819 voffl = 0
+ minv = 0 nfactor = 2.5373 eta0 = 0.2
+ etab = -2.5E-4 dsub = 1 cit = -6.393105E-11
+ cdsc = 2.8125E-7 cdscb = 1E-4 cdscd = 1E-10
+ pclm = 0.030097 pdiblc1 = 0 pdiblc2 = -3.278730240000004E-3
+ lpdiblc2 = 2.0474371270656E-8 pdiblcb = -0.025 drout = 0.43496
+ pscbe1 = 8E8 pscbe2 = 8.6797E-9 pvag = 0
+ delta = 0.0169691504 ldelta = 1.232110324224E-8 fprout = 0
+ pdits = 0 pditsl = 0 pditsd = 0
+ lambda = 0 vtl = 0 lc = 5E-9
+ xn = 3 alpha0 = 5.0449517E-13 alpha1 = -4.0583656E-18
+ beta0 = 6.2016506 aigbacc = 0.43 bigbacc = 0.054
+ cigbacc = 0.075 nigbacc = 1 aigbinv = 0.35
+ bigbinv = 0.03 cigbinv = 6E-3 eigbinv = 1.1
+ nigbinv = 3 aigc = 0.43 bigc = 0.054
+ cigc = 0.075 aigsd = 0.43 bigsd = 0.054
+ cigsd = 0.075 dlcig = 0 nigc = 1
+ poxedge = 1 pigcd = 1 ntox = 1
+ toxref = 4.23E-9 agidl = 0 bgidl = 2.3E9
+ cgidl = 0.5 egidl = 0.8 noia = 3E41
+ noib = 0 noic = 0 em = 4.1E7
+ af = 1 ef = 0.88 kf = 0
+ lintnoi = 0 tnoia = 2.5E7 tnoib = 0
+ ntnoi = 1 rnoia = 0.69 rnoib = 0.34
+ xpart = 0 cgso = {2E-11/sw_func_tox_lv_ratio} cgdo = {2E-11/sw_func_tox_lv_ratio}
+ cgbo = {1E-13/sw_func_tox_lv_ratio} ckappas = 0.6 cf = 0
+ clc = 7E-8 cle = 0.492 dlc = -1.2E-8
+ dwc = 0 vfbcv = -1 noff = 2.6123
+ voffcv = 0.112 acde = 0.44 moin = 8.7
+ cgsl = {0/sw_func_tox_lv_ratio} cgdl = {0/sw_func_tox_lv_ratio} ijthsrev = 0.1
+ ijthsfwd = 0.1 xjbvs = 1 bvs = 12.69
+ jss = 2.1483E-5 jsws = 1.4472E-10 cjs = {7.682E-04*sw_func_psd_nw_cj}
+ mjs = 0.3362 mjsws = 0.2659 cjsws = {9.160236799999998E-11*sw_func_psd_nw_cj}
+ cjswgs = {2.39155046E-10*sw_func_psd_nw_cj} mjswgs = 0.9274 pbs = 0.6587
+ pbsws = 0.7418 pbswgs = 1.4338 xrcrg1 = 12
+ xrcrg2 = 1 rbpb = 50 rbpd = 50
+ rbps = 50 rbdb = 50 rbsb = 50
+ gbmin = 1E-12 tnom = 30 ute = -0.13298
+ kt1 = -0.59135 kt1l = 0 kt2 = -0.055045
+ ua1 = 8.001002400000001E-10 lua1 = -2.074380226560002E-16 ub1 = -3.12473336E-19
+ lub1 = 4.506114173184001E-25 uc1 = -9.961E-12 at = 2.05829584E5
+ lat = -0.0800543863296 prt = 0 njs = 1.3632
+ xtis = 5.2 tpb = 1.671E-3 tpbsw = 1.246E-3
+ tpbswg = 0 tcj = 1.2407E-3 tcjsw = 3.7357E-4
+ tcjswg = 2E-12 tvoff = 0 tvfbsdoff = 0
+ saref = 3E-6 sbref = 3E-6 wlod = 0
+ ku0 = 5.9E-8 kvsat = 0 kvth0 = 1.76E-8
+ tku0 = 0 llodku0 = 0 wlodku0 = 1
+ llodvth = 0 wlodvth = 1 lku0 = 0
+ wku0 = 0 pku0 = 0 lkvth0 = 0
+ wkvth0 = 7.3E-7 pkvth0 = 0 stk2 = 0
+ lodk2 = 1 steta0 = 0 lodeta0 = 1

.model plowvt_model.5 pmos
+ level = 54 lmin = 1E-6 lmax = 1.5E-6 wmin = 7E-6
+ wmax = 1.01E-3 version = 4.5
+ binunit = 2 mobmod = 0 capmod = 2
+ rdsmod = 0 igcmod = 0 igbmod = 0
+ rbodymod = 1 trnqsmod = 0 acnqsmod = 0
+ fnoimod = 1 tnoimod = 1 diomod = 1
+ tempmod = 0 permod = 1 geomod = 0
+ rgatemod = 0 epsrox = 3.9 toxe = 4.23E-9
+ toxm = 4.23E-9 dtox = 0 xj = 1.5E-7
+ ndep = 1.7E17 ngate = 9.999999999999999E22 nsd = 1E20
+ rsh = {swx_nrds} rshg = 0.1 phin = 0
+ wint = {7.476E-9+sw_activecd} wl = 0 wln = 1
+ ww = 0 wwn = 1 wwl = 0
+ lint = {2.8E-9-sw_polycd} ll = 0 lln = 1
+ lw = 0 lwn = 1 lwl = 0
+ llc = 0 lwc = 0 lwlc = 0
+ wlc = 0 wwc = 0 wwlc = 0
+ dwg = -7.916E-9 dwb = 0 xl = 0
+ xw = 0 dmcg = 0 dmdg = 0
+ dmcgt = 0 xgw = 0 xgl = 0
+ ngcon = 1 vth0 = -0.4490338288 lvth0 = -1.879532464127999E-8
+ k1 = 0.64774 k2 = -0.05110258288 lk2 = -7.080642224128E-9
+ k3 = 3.39 k3b = 1 w0 = 1E-8
+ lpe0 = 0 lpeb = 0 vbm = -3
+ dvtp0 = 0 dvtp1 = 0 dvt0 = 2.4422
+ dvt1 = 0.16136 dvt2 = 0.026237 dvt0w = 0.5
+ dvt1w = 1.9281E6 dvt2w = -0.032 vfbsdoff = 0
+ u0 = 2.0291928736E-3 lu0 = 1.19091444809216E-9 ua = -3.153121440000001E-9
+ lua = 2.862096399360005E-16 ub = 3.14096944E-18 lub = -1.673271311359996E-25
+ uc = 6.93721856E-11 luc = 3.233604239360006E-18 ud = 0
+ up = 0 lp = 1 eu = 1.67
+ vsat = 9.00260656E4 lvsat = 1.07885876736E-3 a0 = 0.8695573776
+ la0 = 2.659936693145603E-7 ags = -0.021289552 lags = 7.059837785088002E-7
+ b0 = 0 b1 = 2.1073E-24 keta = -0.01258
+ a1 = 0 a2 = 0.46703705 rdsw = 484.7
+ rdswmin = 0 rdw = 0 rdwmin = 0
+ rsw = 0 rswmin = 0 prwb = 0.1
+ prwg = 0.052 wr = 1 voff = -0.15296296
+ lvoff = -4.324351257600003E-8 voffl = 0 minv = 0
+ nfactor = 2.59775952 lnfactor = -9.035070668800062E-8 eta0 = 0.2
+ etab = -2.5E-4 dsub = 1 cit = -6.393105E-11
+ cdsc = 2.8125E-7 cdscb = 1E-4 cdscd = 1E-10
+ pclm = 0.030097 pdiblc1 = 0 pdiblc2 = 5.973279999999994E-4
+ lpdiblc2 = 1.46819898368E-8 pdiblcb = -0.025 drout = 0.43496
+ pscbe1 = 8E8 pscbe2 = 8.6797E-9 pvag = 0
+ delta = 0.0102363472 ldelta = 2.238260434432001E-8 fprout = 0
+ pdits = 0 pditsl = 0 pditsd = 0
+ lambda = 0 vtl = 0 lc = 5E-9
+ xn = 3 alpha0 = 5.0449517E-13 alpha1 = -4.0583656E-18
+ beta0 = 6.2016506 aigbacc = 0.43 bigbacc = 0.054
+ cigbacc = 0.075 nigbacc = 1 aigbinv = 0.35
+ bigbinv = 0.03 cigbinv = 6E-3 eigbinv = 1.1
+ nigbinv = 3 aigc = 0.43 bigc = 0.054
+ cigc = 0.075 aigsd = 0.43 bigsd = 0.054
+ cigsd = 0.075 dlcig = 0 nigc = 1
+ poxedge = 1 pigcd = 1 ntox = 1
+ toxref = 4.23E-9 agidl = 0 bgidl = 2.3E9
+ cgidl = 0.5 egidl = 0.8 noia = 3E41
+ noib = 0 noic = 0 em = 4.1E7
+ af = 1 ef = 0.88 kf = 0
+ lintnoi = 0 tnoia = 2.5E7 tnoib = 0
+ ntnoi = 1 rnoia = 0.69 rnoib = 0.34
+ xpart = 0 cgso = {2E-11/sw_func_tox_lv_ratio} cgdo = {2E-11/sw_func_tox_lv_ratio}
+ cgbo = {1E-13/sw_func_tox_lv_ratio} ckappas = 0.6 cf = 0
+ clc = 7E-8 cle = 0.492 dlc = -1.2E-8
+ dwc = 0 vfbcv = -1 noff = 2.6123
+ voffcv = 0.112 acde = 0.44 moin = 8.7
+ cgsl = {0/sw_func_tox_lv_ratio} cgdl = {0/sw_func_tox_lv_ratio} ijthsrev = 0.1
+ ijthsfwd = 0.1 xjbvs = 1 bvs = 12.69
+ jss = 2.1483E-5 jsws = 1.4472E-10 cjs = {7.682E-04*sw_func_psd_nw_cj}
+ mjs = 0.3362 mjsws = 0.2659 cjsws = {9.160236799999998E-11*sw_func_psd_nw_cj}
+ cjswgs = {2.39155046E-10*sw_func_psd_nw_cj} mjswgs = 0.9274 pbs = 0.6587
+ pbsws = 0.7418 pbswgs = 1.4338 xrcrg1 = 12
+ xrcrg2 = 1 rbpb = 50 rbpd = 50
+ rbps = 50 rbdb = 50 rbsb = 50
+ gbmin = 1E-12 tnom = 30 ute = 0.05615488
+ lute = -2.826431646720001E-7 kt1 = -0.651014 lkt1 = 8.91618816000001E-8
+ kt1l = 0 kt2 = -0.0933612208 lkt2 = 5.725976036352E-8
+ ua1 = 6.6129E-10 ub1 = -1.05044528E-20 lub1 = -6.508817356799988E-28
+ uc1 = -9.961E-12 at = 2.04346672E5 lat = -0.0778383226368
+ prt = 0 njs = 1.3632 xtis = 5.2
+ tpb = 1.671E-3 tpbsw = 1.246E-3 tpbswg = 0
+ tcj = 1.2407E-3 tcjsw = 3.7357E-4 tcjswg = 2E-12
+ tvoff = 0 tvfbsdoff = 0 saref = 3E-6
+ sbref = 3E-6 wlod = 0 ku0 = 5.9E-8
+ kvsat = 0 kvth0 = 1.76E-8 tku0 = 0
+ llodku0 = 0 wlodku0 = 1 llodvth = 0
+ wlodvth = 1 lku0 = 0 wku0 = 0
+ pku0 = 0 lkvth0 = 0 wkvth0 = 7.3E-7
+ pkvth0 = 0 stk2 = 0 lodk2 = 1
+ steta0 = 0 lodeta0 = 1

.model plowvt_model.6 pmos
+ level = 54 lmin = 5E-7 lmax = 1E-6 wmin = 7E-6
+ wmax = 1.01E-3 version = 4.5
+ binunit = 2 mobmod = 0 capmod = 2
+ rdsmod = 0 igcmod = 0 igbmod = 0
+ rbodymod = 1 trnqsmod = 0 acnqsmod = 0
+ fnoimod = 1 tnoimod = 1 diomod = 1
+ tempmod = 0 permod = 1 geomod = 0
+ rgatemod = 0 epsrox = 3.9 toxe = 4.23E-9
+ toxm = 4.23E-9 dtox = 0 xj = 1.5E-7
+ ndep = 1.7E17 ngate = 9.999999999999999E22 nsd = 1E20
+ rsh = {swx_nrds} rshg = 0.1 phin = 0
+ wint = {7.476E-9+sw_activecd} wl = 0 wln = 1
+ ww = 0 wwn = 1 wwl = 0
+ lint = {2.8E-9-sw_polycd} ll = 0 lln = 1
+ lw = 0 lwn = 1 lwl = 0
+ llc = 0 lwc = 0 lwlc = 0
+ wlc = 0 wwc = 0 wwlc = 0
+ dwg = -7.916E-9 dwb = 0 xl = 0
+ xw = 0 dmcg = 0 dmdg = 0
+ dmcgt = 0 xgw = 0 xgl = 0
+ ngcon = 1 vth0 = -0.4731173008 lvth0 = 5.153279915519995E-9
+ k1 = 0.64774 k2 = -0.06360790704 lk2 = 5.354652120576E-9
+ k3 = 3.39 k3b = 1 w0 = 1E-8
+ lpe0 = 0 lpeb = 0 vbm = -3
+ dvtp0 = 0 dvtp1 = 0 dvt0 = 2.4422
+ dvt1 = 0.16136 dvt2 = 0.026237 dvt0w = 0.5
+ dvt1w = 1.9281E6 dvt2w = -0.032 vfbsdoff = 0
+ u0 = 3.2439924224E-3 lu0 = -1.708222323456021E-11 ua = -2.78985456E-9
+ lua = -7.502294553599983E-17 ub = 2.82507216E-18 lub = 1.46801124096E-25
+ uc = 7.576047360000001E-11 luc = -3.118909347840004E-18 ud = 0
+ up = 0 lp = 1 eu = 1.67
+ vsat = 6.32733136E4 lvsat = 0.02768179535616 a0 = 1.2056064592
+ la0 = -6.817353742848001E-8 ags = 0.95347064 lags = -2.63317756416E-7
+ b0 = 7.305551039999999E-7 lb0 = -7.264639954176E-13 b1 = 2.1073E-24
+ keta = -0.01258 a1 = 0 a2 = 0.46703705
+ rdsw = 484.7 rdswmin = 0 rdw = 0
+ rdwmin = 0 rsw = 0 rswmin = 0
+ prwb = 0.1 prwg = 0.052 wr = 1
+ voff = -0.21083704 lvoff = 1.430647257600001E-8 voffl = 0
+ minv = 0 nfactor = 2.47684048 lnfactor = 2.98911866880002E-8
+ eta0 = 0.2 etab = -2.5E-4 dsub = 1
+ cit = -6.393105E-11 cdsc = 2.8125E-7 cdscb = 1E-4
+ cdscd = 1E-10 pclm = 0.030097 pdiblc1 = 0
+ pdiblc2 = -0.0227473408 lpdiblc2 = 3.789592849152E-8 pdiblcb = -0.025
+ drout = 0.43496 pscbe1 = 8E8 pscbe2 = 8.6797E-9
+ pvag = 0 delta = 0.021368856 ldelta = 1.131243759359999E-8
+ fprout = 0 pdits = 0 pditsl = 0
+ pditsd = 0 lambda = 0 vtl = 0
+ lc = 5E-9 xn = 3 alpha0 = 5.0449517E-13
+ alpha1 = -4.0583656E-18 beta0 = 6.2016506 aigbacc = 0.43
+ bigbacc = 0.054 cigbacc = 0.075 nigbacc = 1
+ aigbinv = 0.35 bigbinv = 0.03 cigbinv = 6E-3
+ eigbinv = 1.1 nigbinv = 3 aigc = 0.43
+ bigc = 0.054 cigc = 0.075 aigsd = 0.43
+ bigsd = 0.054 cigsd = 0.075 dlcig = 0
+ nigc = 1 poxedge = 1 pigcd = 1
+ ntox = 1 toxref = 4.23E-9 agidl = 0
+ bgidl = 2.3E9 cgidl = 0.5 egidl = 0.8
+ noia = 3E41 noib = 0 noic = 0
+ em = 4.1E7 af = 1 ef = 0.88
+ kf = 0 lintnoi = 0 tnoia = 2.5E7
+ tnoib = 0 ntnoi = 1 rnoia = 0.69
+ rnoib = 0.34 xpart = 0 cgso = {2E-11/sw_func_tox_lv_ratio}
+ cgdo = {2E-11/sw_func_tox_lv_ratio} cgbo = {1E-13/sw_func_tox_lv_ratio} ckappas = 0.6
+ cf = 0 clc = 7E-8 cle = 0.492
+ dlc = -1.2E-8 dwc = 0 vfbcv = -1
+ noff = 2.6123 voffcv = 0.112 acde = 0.44
+ moin = 8.7 cgsl = {0/sw_func_tox_lv_ratio} cgdl = {0/sw_func_tox_lv_ratio}
+ ijthsrev = 0.1 ijthsfwd = 0.1 xjbvs = 1
+ bvs = 12.69 jss = 2.1483E-5 jsws = 1.4472E-10
+ cjs = {7.682E-04*sw_func_psd_nw_cj} mjs = 0.3362 mjsws = 0.2659
+ cjsws = {9.160236799999998E-11*sw_func_psd_nw_cj} cjswgs = {2.39155046E-10*sw_func_psd_nw_cj} mjswgs = 0.9274
+ pbs = 0.6587 pbsws = 0.7418 pbswgs = 1.4338
+ xrcrg1 = 12 xrcrg2 = 1 rbpb = 50
+ rbpd = 50 rbps = 50 rbdb = 50
+ rbsb = 50 gbmin = 1E-12 tnom = 30
+ ute = -0.05958848 lute = -1.67547967488E-7 kt1 = -0.491530832
+ lkt1 = -6.942818065919995E-8 kt1l = 0 kt2 = -0.0157696432
+ lkt2 = -1.989730440192E-8 ua1 = 4.28862672E-10 lua1 = 2.311257349632E-16
+ ub1 = 5.703157168E-19 lub1 = -5.7821845838592E-25 uc1 = -2.284941472E-11
+ luc1 = 1.2816239597568E-17 at = 1.920565792E5 lat = -0.06561705435648
+ prt = 0 njs = 1.3632 xtis = 5.2
+ tpb = 1.671E-3 tpbsw = 1.246E-3 tpbswg = 0
+ tcj = 1.2407E-3 tcjsw = 3.7357E-4 tcjswg = 2E-12
+ tvoff = 0 tvfbsdoff = 0 saref = 2.74E-6
+ sbref = 2.74E-6 wlod = 0 ku0 = 5.9E-8
+ kvsat = 0 kvth0 = 1.76E-8 tku0 = 0
+ llodku0 = 0 wlodku0 = 1 llodvth = 0
+ wlodvth = 1 lku0 = 0 wku0 = 0
+ pku0 = 0 lkvth0 = 0 wkvth0 = 7.3E-7
+ pkvth0 = 0 stk2 = 0 lodk2 = 1
+ steta0 = 0 lodeta0 = 1

.model plowvt_model.7 pmos
+ level = 54 lmin = 3.5E-7 lmax = 5E-7 wmin = 7E-6
+ wmax = 1.01E-3 version = 4.5
+ binunit = 2 mobmod = 0 capmod = 2
+ rdsmod = 0 igcmod = 0 igbmod = 0
+ rbodymod = 1 trnqsmod = 0 acnqsmod = 0
+ fnoimod = 1 tnoimod = 1 diomod = 1
+ tempmod = 0 permod = 1 geomod = 0
+ rgatemod = 0 epsrox = 3.9 toxe = 4.23E-9
+ toxm = 4.23E-9 dtox = 0 xj = 1.5E-7
+ ndep = 1.7E17 ngate = 9.999999999999999E22 nsd = 1E20
+ rsh = {swx_nrds} rshg = 0.1 phin = 0
+ wint = {7.476E-9+sw_activecd} wl = 0 wln = 1
+ ww = 0 wwn = 1 wwl = 0
+ lint = {2.8E-9-sw_polycd} ll = 0 lln = 1
+ lw = 0 lwn = 1 lwl = 0
+ llc = 0 lwc = 0 lwlc = 0
+ wlc = 0 wwc = 0 wwlc = 0
+ dwg = -7.916E-9 dwb = 0 xl = 0
+ xw = 0 dmcg = 0 dmdg = 0
+ dmcgt = 0 xgw = 0 xgl = 0
+ ngcon = 1 vth0 = -0.479241272 lvth0 = 8.180971276800022E-9
+ k1 = 0.64774 k2 = -0.0662396664 lk2 = 6.655793948159998E-9
+ k3 = 3.39 k3b = 1 w0 = 1E-8
+ lpe0 = 0 lpeb = 0 vbm = -3
+ dvtp0 = 0 dvtp1 = 0 dvt0 = 2.4422
+ dvt1 = 0.16136 dvt2 = 0.026237 dvt0w = 0.5
+ dvt1w = 1.9281E6 dvt2w = -0.032 vfbsdoff = 0
+ u0 = 2.40470448E-3 lu0 = 3.978617354880002E-10 ua = -3.0740792E-9
+ lua = 6.54977164799999E-17 ub = 3.03016E-18 lub = 4.540569599999976E-26
+ uc = 8.394894399999999E-11 luc = -7.167289113599997E-18 ud = 0
+ up = 0 lp = 1 eu = 1.67
+ vsat = 1.58275336E5 lvsat = -0.0192872045184 a0 = 1.22318864
+ la0 = -7.686616761599996E-8 ags = 0.411112 lags = 4.824355199999972E-9
+ b0 = -2.43518368E-6 lb0 = 8.38677259392E-13 b1 = 2.1073E-24
+ keta = -0.01258 a1 = 0 a2 = 0.46703705
+ rdsw = 484.7 rdswmin = 0 rdw = 0
+ rdwmin = 0 rsw = 0 rswmin = 0
+ prwb = 0.1 prwg = 0.052 wr = 1
+ voff = -0.1819 voffl = 0 minv = 0
+ nfactor = 2.5373 eta0 = 0.2 etab = -2.5E-4
+ dsub = 1 cit = -6.393105E-11 cdsc = 2.8125E-7
+ cdscb = 1E-4 cdscd = 1E-10 pclm = 0.030097
+ pdiblc1 = 0 pdiblc2 = -0.088488032 lpdiblc2 = 7.03981262208E-8
+ pdiblcb = -0.025 drout = 0.43496 pscbe1 = 8E8
+ pscbe2 = 8.6797E-9 pvag = 0 delta = 0.024897016
+ ldelta = 9.5681152896E-9 fprout = 0 pdits = 0
+ pditsl = 0 pditsd = 0 lambda = 0
+ vtl = 0 lc = 5E-9 xn = 3
+ alpha0 = 5.0449517E-13 alpha1 = -4.0583656E-18 beta0 = 6.2016506
+ aigbacc = 0.43 bigbacc = 0.054 cigbacc = 0.075
+ nigbacc = 1 aigbinv = 0.35 bigbinv = 0.03
+ cigbinv = 6E-3 eigbinv = 1.1 nigbinv = 3
+ aigc = 0.43 bigc = 0.054 cigc = 0.075
+ aigsd = 0.43 bigsd = 0.054 cigsd = 0.075
+ dlcig = 0 nigc = 1 poxedge = 1
+ pigcd = 1 ntox = 1 toxref = 4.23E-9
+ agidl = 0 bgidl = 2.3E9 cgidl = 0.5
+ egidl = 0.8 noia = 3E41 noib = 0
+ noic = 0 em = 4.1E7 af = 1
+ ef = 0.88 kf = 0 lintnoi = 0
+ tnoia = 2.5E7 tnoib = 0 ntnoi = 1
+ rnoia = 0.69 rnoib = 0.34 xpart = 0
+ cgso = {2E-11/sw_func_tox_lv_ratio} cgdo = {2E-11/sw_func_tox_lv_ratio} cgbo = {1E-13/sw_func_tox_lv_ratio}
+ ckappas = 0.6 cf = 0 clc = 7E-8
+ cle = 0.492 dlc = -1.2E-8 dwc = 0
+ vfbcv = -1 noff = 2.6123 voffcv = 0.112
+ acde = 0.44 moin = 8.7 cgsl = {0/sw_func_tox_lv_ratio}
+ cgdl = {0/sw_func_tox_lv_ratio} ijthsrev = 0.1 ijthsfwd = 0.1
+ xjbvs = 1 bvs = 12.69 jss = 2.1483E-5
+ jsws = 1.4472E-10 cjs = {7.682E-04*sw_func_psd_nw_cj} mjs = 0.3362
+ mjsws = 0.2659 cjsws = {9.160236799999998E-11*sw_func_psd_nw_cj} cjswgs = {2.39155046E-10*sw_func_psd_nw_cj}
+ mjswgs = 0.9274 pbs = 0.6587 pbsws = 0.7418
+ pbswgs = 1.4338 xrcrg1 = 12 xrcrg2 = 1
+ rbpb = 50 rbpd = 50 rbps = 50
+ rbdb = 50 rbsb = 50 gbmin = 1E-12
+ tnom = 30 ute = -0.39848 kt1 = -0.65492
+ lkt1 = 1.135142400000001E-8 kt1l = 0 kt2 = -0.056015
+ ua1 = 8.9635E-10 ub1 = -5.9922E-19 uc1 = 3.0734E-12
+ at = 1.37677816E5 lat = -0.0387321938304 prt = 0
+ njs = 1.3632 xtis = 5.2 tpb = 1.671E-3
+ tpbsw = 1.246E-3 tpbswg = 0 tcj = 1.2407E-3
+ tcjsw = 3.7357E-4 tcjswg = 2E-12 tvoff = 0
+ tvfbsdoff = 0 saref = 1.74E-6 sbref = 1.74E-6
+ wlod = 0 ku0 = 5.9E-8 kvsat = 0
+ kvth0 = 1.76E-8 tku0 = 0 llodku0 = 0
+ wlodku0 = 1 llodvth = 0 wlodvth = 1
+ lku0 = 0 wku0 = 0 pku0 = 0
+ lkvth0 = 0 wkvth0 = 7.3E-7 pkvth0 = 0
+ stk2 = 0 lodk2 = 1 steta0 = 0
+ lodeta0 = 1

.model plowvt_model.8 pmos
+ level = 54 lmin = 8E-6 lmax = 2.02E-5 wmin = 5E-6
+ wmax = 7E-6 version = 4.5