* Copyright 2020 The SkyWater PDK Authors
*
* Licensed under the Apache License, Version 2.0 (the "License");
* you may not use this file except in compliance with the License.
* You may obtain a copy of the License at
*
*     https://www.apache.org/licenses/LICENSE-2.0
*
* Unless required by applicable law or agreed to in writing, software
* distributed under the License is distributed on an "AS IS" BASIS,
* WITHOUT WARRANTIES OR CONDITIONS OF ANY KIND, either express or implied.
* See the License for the specific language governing permissions and
* limitations under the License.

******************************************************************
******************************************************************
*  *****************************************************
*  04/24/2021 Usman Suriono
*      Why     : New scalable sky130_fd_pr__pfet_01v8 high VT model
*      What    : Converted from discrete phighvt models
*                Replaced rsh from 1 to calculated rsh from the original model.
*                PDK netlist nrd/nrs = ratio of distance the middle of the contact to Gate.
*
*  *****************************************************
*
*  Pmos High VT Model
*  -----------------------------------------------------

.subckt  sky130_fd_pr__pfet_01v8_hvt  d g s b  mult=1
+ 
.param  l = 1 w = 1 nf = 1 ad = 0 as = 0 pd = 0 ps = 0 nrd = {0.14/w} nrs = {0.14/w} sa = 0 sb = 0 sd = 0
+ swx_nrds = {361*nf/w+1489}

Msky130_fd_pr__pfet_01v8_hvt  d g s b phighvt_model l = {l} w = {w} ad = {ad} as = {as} pd = {pd} ps = {ps} nrd = {nrd} nrs = {nrs} sa = {sa} sb = {sb} sd = {sd} nf = {nf}
* + deltox = 0.3*(sw_tox_lv_corner - sw_tox_lv_nom) + sw_tox_lv_mc + sw_mm_tox_lv * mismatch_factor*MC_MM_SWITCH*AGAUSS(0,1.0,1)/sqrt(l*w*mult)
* + mulu0  = sw_u0_sky130_fd_pr__pfet_01v8_hvt
+ delvto = {(sw_vth0_sky130_fd_pr__pfet_01v8_hvt+sw_vth0_sky130_fd_pr__pfet_01v8_hvt_mc)*(0.023*8/l+0.977)*(0.024*7/w+0.976)*(0.00055*56/(w*l)+0.99945)-0.0025/l+4e-4/(l*w)+sw_mm_vth0_sky130_fd_pr__pfet_01v8_hvt*mismatch_factor*MC_MM_SWITCH*AGAUSS(0,1.0,1)/sqrt(l*w*mult)}
* + mulvsat = sw_vsat_sky130_fd_pr__pfet_01v8_hvt




.model phighvt_model.1 pmos
+ level = 54 lmin = 8E-6 lmax = 2.02E-5 wmin = 7E-6
+ wmax = 1.01E-3 version = 4.5
+ binunit = 2 mobmod = 0 capmod = 2
+ rdsmod = 0 igcmod = 0 igbmod = 0
+ rbodymod = 1 trnqsmod = 0 acnqsmod = 0
+ fnoimod = 1 tnoimod = 1 diomod = 1
+ tempmod = 0 permod = 1 geomod = 0
+ rgatemod = 0 epsrox = 3.9 toxe = 4.23E-9
+ toxm = 4.23E-9 dtox = 0 xj = 1.5E-7
+ ndep = 1.7E17 ngate = 9.999999999999999E22 nsd = 1E20
+ rsh = {swx_nrds} rshg = 0.1 phin = 0
+ wint = {9.364E-9+sw_activecd} wl = 0 wln = 1
+ ww = 0 wwn = 1 wwl = 0
+ lint = {-1.176E-8-sw_polycd} ll = 0 lln = 1
+ lw = 0 lwn = 1 lwl = 0
+ llc = 0 lwc = 0 lwlc = 0
+ wlc = 0 wwc = 0 wwlc = 0
+ dwg = -5.722E-9 dwb = -1.7864E-8 xl = 0
+ xw = 0 dmcg = 0 dmdg = 0
+ dmcgt = 0 xgw = 0 xgl = 0
+ ngcon = 1 vth0 = -1.1148095 k1 = 0.43657182
+ k2 = 0.029941288 k3 = -13.778 k3b = 2
+ w0 = 0 lpe0 = 0 lpeb = 0
+ vbm = -3 dvtp0 = 0 dvtp1 = 0
+ dvt0 = 4.05 dvt1 = 0.3 dvt2 = 0.03
+ dvt0w = -4.254 dvt1w = 1.1472E6 dvt2w = -8.96E-3
+ vfbsdoff = 0 u0 = 0.012121798 ua = -2.3807897E-10
+ ub = 8.232617299999999E-19 uc = -7.7670696E-11 ud = 0
+ up = 0 lp = 1 eu = 1.67
+ vsat = 2E5 a0 = 1.4973894 ags = 0.3864062
+ b0 = 0 b1 = 0 keta = -0.013169082
+ a1 = 0 a2 = 1 rdsw = 531.92
+ rdswmin = 0 rdw = 0 rdwmin = 0
+ rsw = 0 rswmin = 0 prwb = -0.32348
+ prwg = 0.02 wr = 1 voff = -0.19592208
+ voffl = 0 minv = 0 nfactor = 2.4926776
+ eta0 = 0.08 etab = -0.07 dsub = 0.56
+ cit = 1E-5 cdsc = 0 cdscb = 0
+ cdscd = 0 pclm = 0.075489662 pdiblc1 = 0.39
+ pdiblc2 = 3.6275994E-3 pdiblcb = -9.5744039E-5 drout = 0.56
+ pscbe1 = 7.4647513E8 pscbe2 = 9.5049925E-9 pvag = 0
+ delta = 0.01 fprout = 0 pdits = 0
+ pditsl = 0 pditsd = 0 lambda = 0
+ vtl = 0 lc = 5E-9 xn = 3
+ alpha0 = 1E-10 alpha1 = 1E-10 beta0 = 4.7923891
+ aigbacc = 0.43 bigbacc = 0.054 cigbacc = 0.075
+ nigbacc = 1 aigbinv = 0.35 bigbinv = 0.03
+ cigbinv = 6E-3 eigbinv = 1.1 nigbinv = 3
+ aigc = 0.43 bigc = 0.054 cigc = 0.075
+ aigsd = 0.43 bigsd = 0.054 cigsd = 0.075
+ dlcig = 0 nigc = 1 poxedge = 1
+ pigcd = 1 ntox = 1 toxref = 4.23E-9
+ agidl = 1E-10 bgidl = 1.1544446E9 cgidl = 300
+ egidl = 0.1 noia = 1.2E41 noib = 2E25
+ noic = 0 em = 4.1E7 af = 1
+ ef = 0.88 kf = 0 lintnoi = -6E-8
+ tnoia = 1.5 tnoib = 3.5 ntnoi = 1
+ rnoia = 0.577 rnoib = 0.37 xpart = 0
+ cgso = {5.932020000000001E-11/sw_func_tox_lv_ratio} cgdo = {5.932020000000001E-11/sw_func_tox_lv_ratio} cgbo = {0/sw_func_tox_lv_ratio}
+ ckappas = 0.6 cf = 1.2E-11 clc = 1E-7
+ cle = 0.6 dlc = -2.56E-9 dwc = 0
+ vfbcv = -0.1446893 noff = 4 voffcv = -0.1375
+ acde = 0.552 moin = 14.504 cgsl = {7.513892E-12/sw_func_tox_lv_ratio}
+ cgdl = {7.513892E-12/sw_func_tox_lv_ratio} ijthsrev = 0.1 ijthsfwd = 0.1
+ xjbvs = 1 bvs = 12.8 jss = 2.17E-5
+ jsws = 8.200000000000001E-10 cjs = {7.433E-04*sw_func_psd_nw_cj} mjs = 0.34629
+ mjsws = 0.26859 cjsws = {9.2435E-11*sw_func_psd_nw_cj} cjswgs = {2.4701E-10*sw_func_psd_nw_cj}
+ mjswgs = 0.70393 pbs = 0.6587 pbsws = 0.7418
+ pbswgs = 1.3925 xrcrg1 = 12 xrcrg2 = 1
+ rbpb = 50 rbpd = 50 rbps = 50
+ rbdb = 50 rbsb = 50 gbmin = 1E-12
+ tnom = 30 ute = -0.30066 kt1 = -0.44169
+ kt1l = 0 kt2 = -0.037961 ua1 = 2.2116E-9
+ ub1 = -7.9359E-19 uc1 = 1.1985E-10 at = 0
+ prt = 0 njs = 1.2556 xtis = 2
+ tpb = 1.9551E-3 tpbsw = 1.4242E-4 tpbswg = 0
+ tcj = 1.2407E-3 tcjsw = 0 tcjswg = 2E-12
+ tvoff = 0 tvfbsdoff = 0 saref = 3E-6
+ sbref = 3E-6 wlod = 0 ku0 = 4.5E-8
+ kvsat = 0.4 kvth0 = 2.65E-8 tku0 = 0
+ llodku0 = 0 wlodku0 = 1 llodvth = 0
+ wlodvth = 1 lku0 = 0 wku0 = 2.5E-7
+ pku0 = 0 lkvth0 = 0 wkvth0 = 2.5E-7
+ pkvth0 = 0 stk2 = 0 lodk2 = 1
+ steta0 = 0 lodeta0 = 1

.model phighvt_model.2 pmos
+ level = 54 lmin = 4E-6 lmax = 8E-6 wmin = 7E-6
+ wmax = 1.01E-3 version = 4.5
+ binunit = 2 mobmod = 0 capmod = 2
+ rdsmod = 0 igcmod = 0 igbmod = 0
+ rbodymod = 1 trnqsmod = 0 acnqsmod = 0
+ fnoimod = 1 tnoimod = 1 diomod = 1
+ tempmod = 0 permod = 1 geomod = 0
+ rgatemod = 0 epsrox = 3.9 toxe = 4.23E-9
+ toxm = 4.23E-9 dtox = 0 xj = 1.5E-7
+ ndep = 1.7E17 ngate = 9.999999999999999E22 nsd = 1E20
+ rsh = {swx_nrds} rshg = 0.1 phin = 0
+ wint = {9.364E-9+sw_activecd} wl = 0 wln = 1
+ ww = 0 wwn = 1 wwl = 0
+ lint = {-1.176E-8-sw_polycd} ll = 0 lln = 1
+ lw = 0 lwn = 1 lwl = 0
+ llc = 0 lwc = 0 lwlc = 0
+ wlc = 0 wwc = 0 wwlc = 0
+ dwg = -5.722E-9 dwb = -1.7864E-8 xl = 0
+ xw = 0 dmcg = 0 dmdg = 0
+ dmcgt = 0 xgw = 0 xgl = 0
+ ngcon = 1 vth0 = -1.123204675068 lvth0 = 6.735885506159955E-8
+ k1 = 0.443495442922 lk1 = -5.555182698712548E-8 k2 = 0.02544290814608
+ lk2 = 3.609284072552418E-8 k3 = -13.778 k3b = 2
+ w0 = 0 lpe0 = 0 lpeb = 0
+ vbm = -3 dvtp0 = 0 dvtp1 = 0
+ dvt0 = 4.05 dvt1 = 0.3 dvt2 = 0.03
+ dvt0w = -4.254 dvt1w = 1.1472E6 dvt2w = -8.96E-3
+ vfbsdoff = 0 u0 = 0.01191725833728 lu0 = 1.641128074627184E-9
+ ua = -2.594257754776E-10 lua = 1.71276520685633E-16 ub = 8.232617299999999E-19
+ uc = -8.496648345732E-11 luc = 5.853789657955614E-17 ud = 0
+ up = 0 lp = 1 eu = 1.67
+ vsat = 2.747193515116E5 lvsat = -0.599512211240353 a0 = 1.202162211768
+ la0 = 2.368761249323215E-6 ags = 0.113179367658 lags = 2.192240953832684E-6
+ b0 = 0 b1 = 0 keta = 0.0292908429136
+ lketa = -3.406780567427679E-7 a1 = 0 a2 = 1.201176
+ la2 = -1.61413965952E-6 rdsw = 531.92 rdswmin = 0
+ rdw = 0 rdwmin = 0 rsw = 0
+ rswmin = 0 prwb = -0.32348 prwg = 0.02
+ wr = 1 voff = -0.1979203813256 lvoff = 1.603341065197807E-8
+ voffl = 0 minv = 0 nfactor = 2.52682923776
+ lnfactor = -2.740163486001133E-7 eta0 = 0.08 etab = -0.07
+ dsub = 0.56 cit = 1E-5 cdsc = 0
+ cdscb = 0 cdscd = 0 pclm = -0.48511023428744
+ lpclm = 4.497984479860201E-6 pdiblc1 = 0.39 pdiblc2 = 6.7956520966272E-3
+ lpdiblc2 = -2.541893417244228E-8 pdiblcb = 5.8355983957548E-4 lpdiblcb = -5.450408255827935E-9
+ drout = 0.56 pscbe1 = 6.926355337644E8 lpscbe1 = 431.9830771882613
+ pscbe2 = 1.0062653780232E-8 lpscbe2 = -4.474406435167058E-15 pvag = 0
+ delta = 0.01 fprout = 0 pdits = 0
+ pditsl = 0 pditsd = 0 lambda = 0
+ vtl = 0 lc = 5E-9 xn = 3
+ alpha0 = 1E-10 alpha1 = 1E-10 beta0 = 4.265271567144001
+ lbeta0 = 4.229338067220769E-6 aigbacc = 0.43 bigbacc = 0.054
+ cigbacc = 0.075 nigbacc = 1 aigbinv = 0.35
+ bigbinv = 0.03 cigbinv = 6E-3 eigbinv = 1.1
+ nigbinv = 3 aigc = 0.43 bigc = 0.054
+ cigc = 0.075 aigsd = 0.43 bigsd = 0.054
+ cigsd = 0.075 dlcig = 0 nigc = 1
+ poxedge = 1 pigcd = 1 ntox = 1
+ toxref = 4.23E-9 agidl = 5.43948492672E-11 lagidl = 3.659138390076355E-16
+ bgidl = 1.309797334248E9 lbgidl = -1.246475770293513E3 cgidl = 300
+ egidl = 0.1 noia = 1.2E41 noib = 2E25
+ noic = 0 em = 4.1E7 af = 1
+ ef = 0.88 kf = 0 lintnoi = -6E-8
+ tnoia = 1.5 tnoib = 3.5 ntnoi = 1
+ rnoia = 0.577 rnoib = 0.37 xpart = 0
+ cgso = {5.932020000000001E-11/sw_func_tox_lv_ratio} cgdo = {5.932020000000001E-11/sw_func_tox_lv_ratio} cgbo = {0/sw_func_tox_lv_ratio}
+ ckappas = 0.6 cf = 1.2E-11 clc = 1E-7
+ cle = 0.6 dlc = -2.56E-9 dwc = 0
+ vfbcv = -0.1446893 noff = 4 voffcv = -0.1375
+ acde = 0.552 moin = 14.504 cgsl = {7.513892E-12/sw_func_tox_lv_ratio}
+ cgdl = {7.513892E-12/sw_func_tox_lv_ratio} ijthsrev = 0.1 ijthsfwd = 0.1
+ xjbvs = 1 bvs = 12.8 jss = 2.17E-5
+ jsws = 8.200000000000001E-10 cjs = {7.433E-04*sw_func_psd_nw_cj} mjs = 0.34629
+ mjsws = 0.26859 cjsws = {9.2435E-11*sw_func_psd_nw_cj} cjswgs = {2.4701E-10*sw_func_psd_nw_cj}
+ mjswgs = 0.70393 pbs = 0.6587 pbsws = 0.7418
+ pbswgs = 1.3925 xrcrg1 = 12 xrcrg2 = 1
+ rbpb = 50 rbpd = 50 rbps = 50
+ rbdb = 50 rbsb = 50 gbmin = 1E-12
+ tnom = 30 ute = -0.3030841708 lute = 1.945038289721574E-8
+ kt1 = -0.4308566724 lkt1 = -8.692142066515156E-8 kt1l = 0
+ kt2 = -0.0355619762 lkt2 = -1.924861543977598E-8 ua1 = 2.003584016000001E-9
+ lua1 = 1.669020407943678E-15 ub1 = -6.183355276000001E-19 lub1 = -1.406157764390848E-24
+ uc1 = 1.026796284E-10 luc1 = 1.37766819940032E-16 at = -2.640535588E5
+ lat = 2.118639010102976 prt = 0 njs = 1.2556
+ xtis = 2 tpb = 1.9551E-3 tpbsw = 1.4242E-4
+ tpbswg = 0 tcj = 1.2407E-3 tcjsw = 0
+ tcjswg = 2E-12 tvoff = 0 tvfbsdoff = 0
+ saref = 3E-6 sbref = 3E-6 wlod = 0
+ ku0 = 4.5E-8 kvsat = 0.4 kvth0 = 2.65E-8
+ tku0 = 0 llodku0 = 0 wlodku0 = 1
+ llodvth = 0 wlodvth = 1 lku0 = 0
+ wku0 = 2.5E-7 pku0 = 0 lkvth0 = 0
+ wkvth0 = 2.5E-7 pkvth0 = 0 stk2 = 0
+ lodk2 = 1 steta0 = 0 lodeta0 = 1

.model phighvt_model.3 pmos
+ level = 54 lmin = 2E-6 lmax = 4E-6 wmin = 7E-6
+ wmax = 1.01E-3 version = 4.5
+ binunit = 2 mobmod = 0 capmod = 2
+ rdsmod = 0 igcmod = 0 igbmod = 0
+ rbodymod = 1 trnqsmod = 0 acnqsmod = 0
+ fnoimod = 1 tnoimod = 1 diomod = 1
+ tempmod = 0 permod = 1 geomod = 0
+ rgatemod = 0 epsrox = 3.9 toxe = 4.23E-9
+ toxm = 4.23E-9 dtox = 0 xj = 1.5E-7
+ ndep = 1.7E17 ngate = 9.999999999999999E22 nsd = 1E20
+ rsh = {swx_nrds} rshg = 0.1 phin = 0
+ wint = {9.364E-9+sw_activecd} wl = 0 wln = 1
+ ww = 0 wwn = 1 wwl = 0
+ lint = {-1.176E-8-sw_polycd} ll = 0 lln = 1
+ lw = 0 lwn = 1 lwl = 0
+ llc = 0 lwc = 0 lwlc = 0
+ wlc = 0 wwc = 0 wwlc = 0
+ dwg = -5.722E-9 dwb = -1.7864E-8 xl = 0
+ xw = 0 dmcg = 0 dmdg = 0
+ dmcgt = 0 xgw = 0 xgl = 0
+ ngcon = 1 vth0 = -1.113561301104 lvth0 = 2.85585470499661E-8
+ k1 = 0.3637621455776 lk1 = 2.652566895440147E-7 k2 = 0.05980424599648
+ lk2 = -1.021606893423172E-7 k3 = -13.778 k3b = 2
+ w0 = 0 lpe0 = 0 lpeb = 0
+ vbm = -3 dvtp0 = 0 dvtp1 = 0
+ dvt0 = 4.05 dvt1 = 0.3 dvt2 = 0.03
+ dvt0w = -4.254 dvt1w = 1.1472E6 dvt2w = -8.96E-3
+ vfbsdoff = 0 u0 = 0.014572133174712 lu0 = -9.04081393127723E-9
+ ua = 2.544713549416E-10 lua = -1.896398861498626E-15 ub = 5.914619448359999E-19
+ lub = 9.358961209534573E-25 uc = -6.801805383112002E-11 luc = -9.654448990052035E-18
+ ud = 0 up = 0 lp = 1
+ eu = 1.67 vsat = 1.9525755239136E5 lvsat = -0.279796073244085
+ a0 = 1.862834827728 la0 = -2.894682344441618E-7 ags = 0.4895224060224
+ lags = 6.780172121127532E-7 b0 = 0 b1 = 0
+ keta = -0.05304568723752 lketa = -9.39538094913352E-9 a1 = 0
+ a2 = 0.8 rdsw = 531.92 rdswmin = 0
+ rdw = 0 rdwmin = 0 rsw = 0
+ rswmin = 0 prwb = -0.32348 prwg = 0.02
+ wr = 1 voff = -0.1910957329728 lvoff = -1.142569848847968E-8
+ voffl = 0 minv = 0 nfactor = 2.933877032336
+ lnfactor = -1.911781291032544E-6 eta0 = 0.16043492 leta0 = -3.236315093184E-7
+ etab = -0.14031732 letab = 2.829231433664E-7 dsub = 0.771920062556
+ ldsub = -8.526646100953172E-7 cit = 1E-5 cdsc = 0
+ cdscb = 0 cdscd = 0 pclm = 0.6568215445648
+ lpclm = -9.660087098736425E-8 pdiblc1 = 0.39 pdiblc2 = 7.150215988168E-4
+ lpdiblc2 = -9.533957518921712E-10 pdiblcb = 6.670580670399963E-6 lpdiblcb = -3.129282784838168E-9
+ drout = 0.56 pscbe1 = 8E8 pscbe2 = 9.231951843104E-9
+ lpscbe2 = -1.132060577093806E-15 pvag = 0 delta = 0.01
+ fprout = 0 pdits = 0 pditsl = 0
+ pditsd = 0 lambda = 0 vtl = 0
+ lc = 5E-9 xn = 3 alpha0 = 1E-10
+ alpha1 = 1E-10 beta0 = 3.317690081192 lbeta0 = 8.041951127578366E-6
+ aigbacc = 0.43 bigbacc = 0.054 cigbacc = 0.075
+ nigbacc = 1 aigbinv = 0.35 bigbinv = 0.03
+ cigbinv = 6E-3 eigbinv = 1.1 nigbinv = 3
+ aigc = 0.43 bigc = 0.054 cigc = 0.075
+ aigsd = 0.43 bigsd = 0.054 cigsd = 0.075
+ dlcig = 0 nigc = 1 poxedge = 1
+ pigcd = 1 ntox = 1 toxref = 4.23E-9
+ agidl = 1.858702119504E-10 lagidl = -1.630799122554734E-16 bgidl = 1E9
+ cgidl = 300 egidl = 0.1 noia = 1.2E41
+ noib = 2E25 noic = 0 em = 4.1E7
+ af = 1 ef = 0.88 kf = 0
+ lintnoi = -6E-8 tnoia = 1.5 tnoib = 3.5
+ ntnoi = 1 rnoia = 0.577 rnoib = 0.37
+ xpart = 0 cgso = {5.932020000000001E-11/sw_func_tox_lv_ratio} cgdo = {5.932020000000001E-11/sw_func_tox_lv_ratio}
+ cgbo = {0/sw_func_tox_lv_ratio} ckappas = 0.6 cf = 1.2E-11
+ clc = 1E-7 cle = 0.6 dlc = -2.56E-9
+ dwc = 0 vfbcv = -0.1446893 noff = 4
+ voffcv = -0.1375 acde = 0.552 moin = 14.504
+ cgsl = {7.513892E-12/sw_func_tox_lv_ratio} cgdl = {7.513892E-12/sw_func_tox_lv_ratio} ijthsrev = 0.1
+ ijthsfwd = 0.1 xjbvs = 1 bvs = 12.8
+ jss = 2.17E-5 jsws = 8.200000000000001E-10 cjs = {7.433E-04*sw_func_psd_nw_cj}
+ mjs = 0.34629 mjsws = 0.26859 cjsws = {9.2435E-11*sw_func_psd_nw_cj}
+ cjswgs = {2.4701E-10*sw_func_psd_nw_cj} mjswgs = 0.70393 pbs = 0.6587
+ pbsws = 0.7418 pbswgs = 1.3925 xrcrg1 = 12
+ xrcrg2 = 1 rbpb = 50 rbpd = 50
+ rbps = 50 rbdb = 50 rbsb = 50
+ gbmin = 1E-12 tnom = 30 ute = -0.43143505112
+ lute = 5.358727168823424E-7 kt1 = -0.4745062504 lkt1 = 8.870352940940789E-8
+ kt1l = 0 kt2 = -0.03695862752 lkt2 = -1.362916092072959E-8
+ ua1 = 3.008458432E-9 lua1 = -2.374111902320639E-15 ub1 = -1.3030363232E-18
+ lub1 = 1.348749580721664E-24 uc1 = 3.486156036E-10 luc1 = -8.51761494996672E-16
+ at = 4.361381335999999E5 lat = -0.698596268102272 prt = 0
+ njs = 1.2556 xtis = 2 tpb = 1.9551E-3
+ tpbsw = 1.4242E-4 tpbswg = 0 tcj = 1.2407E-3
+ tcjsw = 0 tcjswg = 2E-12 tvoff = 0
+ tvfbsdoff = 0 saref = 3E-6 sbref = 3E-6
+ wlod = 0 ku0 = 4.5E-8 kvsat = 0.4
+ kvth0 = 2.65E-8 tku0 = 0 llodku0 = 0
+ wlodku0 = 1 llodvth = 0 wlodvth = 1
+ lku0 = 0 wku0 = 2.5E-7 pku0 = 0
+ lkvth0 = 0 wkvth0 = 2.5E-7 pkvth0 = 0
+ stk2 = 0 lodk2 = 1 steta0 = 0
+ lodeta0 = 1

.model phighvt_model.4 pmos
+ level = 54 lmin = 1E-6 lmax = 2E-6 wmin = 7E-6
+ wmax = 1.01E-3 version = 4.5
+ binunit = 2 mobmod = 0 capmod = 2
+ rdsmod = 0 igcmod = 0 igbmod = 0
+ rbodymod = 1 trnqsmod = 0 acnqsmod = 0
+ fnoimod = 1 tnoimod = 1 diomod = 1
+ tempmod = 0 permod = 1 geomod = 0
+ rgatemod = 0 epsrox = 3.9 toxe = 4.23E-9
+ toxm = 4.23E-9 dtox = 0 xj = 1.5E-7
+ ndep = 1.7E17 ngate = 9.999999999999999E22 nsd = 1E20
+ rsh = {swx_nrds} rshg = 0.1 phin = 0
+ wint = {9.364E-9+sw_activecd} wl = 0 wln = 1
+ ww = 0 wwn = 1 wwl = 0
+ lint = {-1.176E-8-sw_polycd} ll = 0 lln = 1
+ lw = 0 lwn = 1 lwl = 0
+ llc = 0 lwc = 0 lwlc = 0
+ wlc = 0 wwc = 0 wwlc = 0
+ dwg = -5.722E-9 dwb = -1.7864E-8 xl = 0
+ xw = 0 dmcg = 0 dmdg = 0
+ dmcgt = 0 xgw = 0 xgl = 0
+ ngcon = 1 vth0 = -1.114072360816 lvth0 = 2.959268659839238E-8
+ k1 = 0.5462826425712 lk1 = -1.040771865324745E-7 k2 = -8.311776183199997E-3
+ lk2 = 3.567344385870886E-8 k3 = -13.778 k3b = 2
+ w0 = 0 lpe0 = 0 lpeb = 0
+ vbm = -3 dvtp0 = 0 dvtp1 = 0
+ dvt0 = 4.05 dvt1 = 0.3 dvt2 = 0.03
+ dvt0w = -4.254 dvt1w = 1.1472E6 dvt2w = -8.96E-3
+ vfbsdoff = 0 u0 = 0.010169809300848 lu0 = -1.326235260359468E-10
+ ua = -7.135920468192E-10 lua = 6.249679323238765E-17 ub = 1.1166695551024E-18
+ lub = -1.268719825728085E-25 uc = -8.182089778416001E-11 luc = 1.827588180580345E-17
+ ud = 0 up = 0 lp = 1
+ eu = 1.67 vsat = 2.447379951472E4 lvsat = 0.065788266376854
+ a0 = 1.7396290528 la0 = -4.015888476185603E-8 ags = 0.6669594002016
+ lags = 3.189699056512583E-7 b0 = 0 b1 = 0
+ keta = -0.07382040309712 lketa = 3.264267208708426E-8 a1 = 0
+ a2 = 0.8 rdsw = 531.92 rdswmin = 0
+ rdw = 0 rdwmin = 0 rsw = 0
+ rswmin = 0 prwb = -0.32348 prwg = 0.02
+ wr = 1 voff = -0.1885326489024 lvoff = -1.661215036661556E-8
+ voffl = 0 minv = 0 nfactor = 2.4768693451664
+ lnfactor = -9.870170958911135E-7 eta0 = -0.2239388882928 leta0 = 4.541565792382466E-7
+ etab = 1.175999999999987E-5 letab = -1.0355565952E-9 dsub = -0.314188925112
+ ldsub = 1.345098648630634E-6 cit = 1E-5 cdsc = 0
+ cdscb = 0 cdscd = 0 pclm = 0.4935007665952
+ lpclm = 2.338819896496808E-7 pdiblc1 = 0.4365156882656 lpdiblc1 = -9.412542551920693E-8
+ pdiblc2 = 5.335115374560003E-5 lpdiblc2 = 3.855076271183034E-10 pdiblcb = -1.744019420784E-3
+ lpdiblcb = 4.132734469048395E-10 drout = 0.2637846837264 ldrout = 5.993976167859548E-7
+ pscbe1 = 8E8 pscbe2 = 8.230625622080002E-9 lpscbe2 = 8.94143057672676E-16
+ pvag = 0 delta = 0.01 fprout = 0
+ pdits = 0 pditsl = 0 pditsd = 0
+ lambda = 0 vtl = 0 lc = 5E-9
+ xn = 3 alpha0 = 1E-10 alpha1 = 1E-10
+ beta0 = 5.736193757504001 lbeta0 = 3.148060568487504E-6 aigbacc = 0.43
+ bigbacc = 0.054 cigbacc = 0.075 nigbacc = 1
+ aigbinv = 0.35 bigbinv = 0.03 cigbinv = 6E-3
+ eigbinv = 1.1 nigbinv = 3 aigc = 0.43
+ bigc = 0.054 cigc = 0.075 aigsd = 0.43
+ bigsd = 0.054 cigsd = 0.075 dlcig = 0
+ nigc = 1 poxedge = 1 pigcd = 1
+ ntox = 1 toxref = 4.23E-9 agidl = 1.106801790304E-10
+ lagidl = -1.093137684119501E-17 bgidl = 8.70486747408E8 lbgidl = 262.0726568849638
+ cgidl = 300 egidl = 0.1 noia = 1.2E41
+ noib = 2E25 noic = 0 em = 4.1E7
+ af = 1 ef = 0.88 kf = 0
+ lintnoi = -6E-8 tnoia = 1.5 tnoib = 3.5
+ ntnoi = 1 rnoia = 0.577 rnoib = 0.37
+ xpart = 0 cgso = {5.932020000000001E-11/sw_func_tox_lv_ratio} cgdo = {5.932020000000001E-11/sw_func_tox_lv_ratio}
+ cgbo = {0/sw_func_tox_lv_ratio} ckappas = 0.6 cf = 1.2E-11
+ clc = 1E-7 cle = 0.6 dlc = -2.56E-9
+ dwc = 0 vfbcv = -0.1446893 noff = 4
+ voffcv = -0.1375 acde = 0.552 moin = 14.504
+ cgsl = {7.513892E-12/sw_func_tox_lv_ratio} cgdl = {7.513892E-12/sw_func_tox_lv_ratio} ijthsrev = 0.1
+ ijthsfwd = 0.1 xjbvs = 1 bvs = 12.8
+ jss = 2.17E-5 jsws = 8.200000000000001E-10 cjs = {7.433E-04*sw_func_psd_nw_cj}
+ mjs = 0.34629 mjsws = 0.26859 cjsws = {9.2435E-11*sw_func_psd_nw_cj}
+ cjswgs = {2.4701E-10*sw_func_psd_nw_cj} mjswgs = 0.70393 pbs = 0.6587
+ pbsws = 0.7418 pbswgs = 1.3925 xrcrg1 = 12
+ xrcrg2 = 1 rbpb = 50 rbpd = 50
+ rbps = 50 rbdb = 50 rbsb = 50
+ gbmin = 1E-12 tnom = 30 ute = 1.106661846912
+ lute = -2.57649711822337E-6 kt1 = -0.3895163794864 lkt1 = -8.327517418167986E-8
+ kt1l = 0 kt2 = -0.04011970337328 lkt2 = -7.232660710100454E-9
+ ua1 = 4.3736668130912E-9 lua1 = -5.136638365626304E-15 ub1 = -2.0702692003824E-18
+ lub1 = 2.901260652357794E-24 uc1 = -1.460855110764704E-10 luc1 = 1.492761045734594E-16
+ at = 3.408125235840002E4 lat = 0.11497387222773 prt = 0
+ njs = 1.2556 xtis = 2 tpb = 1.9551E-3
+ tpbsw = 1.4242E-4 tpbswg = 0 tcj = 1.2407E-3
+ tcjsw = 0 tcjswg = 2E-12 tvoff = 0
+ tvfbsdoff = 0 saref = 3E-6 sbref = 3E-6
+ wlod = 0 ku0 = 4.5E-8 kvsat = 0.4
+ kvth0 = 2.65E-8 tku0 = 0 llodku0 = 0
+ wlodku0 = 1 llodvth = 0 wlodvth = 1
+ lku0 = 0 wku0 = 2.5E-7 pku0 = 0
+ lkvth0 = 0 wkvth0 = 2.5E-7 pkvth0 = 0
+ stk2 = 0 lodk2 = 1 steta0 = 0
+ lodeta0 = 1

.model phighvt_model.5 pmos
+ level = 54 lmin = 5E-7 lmax = 1E-6 wmin = 7E-6
+ wmax = 1.01E-3 version = 4.5
+ binunit = 2 mobmod = 0 capmod = 2
+ rdsmod = 0 igcmod = 0 igbmod = 0
+ rbodymod = 1 trnqsmod = 0 acnqsmod = 0
+ fnoimod = 1 tnoimod = 1 diomod = 1
+ tempmod = 0 permod = 1 geomod = 0
+ rgatemod = 0 epsrox = 3.9 toxe = 4.23E-9
+ toxm = 4.23E-9 dtox = 0 xj = 1.5E-7
+ ndep = 1.7E17 ngate = 9.999999999999999E22 nsd = 1E20
+ rsh = {swx_nrds} rshg = 0.1 phin = 0
+ wint = {9.364E-9+sw_activecd} wl = 0 wln = 1
+ ww = 0 wwn = 1 wwl = 0
+ lint = {-1.176E-8-sw_polycd} ll = 0 lln = 1
+ lw = 0 lwn = 1 lwl = 0
+ llc = 0 lwc = 0 lwlc = 0
+ wlc = 0 wwc = 0 wwlc = 0
+ dwg = -5.722E-9 dwb = -1.7864E-8 xl = 0
+ xw = 0 dmcg = 0 dmdg = 0
+ dmcgt = 0 xgw = 0 xgl = 0
+ ngcon = 1 vth0 = -1.103848212256 lvth0 = 1.912806606426106E-8
+ k1 = 0.4081553230272 lk1 = 3.729888756720023E-8 k2 = 0.03856635403808
+ lk2 = -1.230725998537564E-8 k3 = -13.778 k3b = 2
+ w0 = 0 lpe0 = 0 lpeb = 0
+ vbm = -3 dvtp0 = 0 dvtp1 = 0
+ dvt0 = 4.05 dvt1 = 0.3 dvt2 = 0.03
+ dvt0w = -4.254 dvt1w = 1.1472E6 dvt2w = -8.96E-3
+ vfbsdoff = 0 u0 = 0.012394537811136 lu0 = -2.409677650885917E-9
+ ua = -1.1409003296E-10 lua = -5.511055079927807E-16 ub = 6.999324073311999E-19
+ lub = 2.996668229139702E-25 uc = -1.1534989269216E-10 luc = 5.25934786740396E-17
+ ud = 0 up = 0 lp = 1
+ eu = 1.67 vsat = 6.920653067231999E4 lvsat = 0.020003421382427
+ a0 = 2.34588583072 la0 = -6.606748220985343E-7 ags = 1.0240929258912
+ lags = -4.656340056256098E-8 b0 = 0 b1 = 0
+ keta = -0.05361997634176 lketa = 1.196713129443819E-8 a1 = 0
+ a2 = 0.590592 la2 = 2.1433327616E-7 rdsw = 531.92
+ rdswmin = 0 rdw = 0 rdwmin = 0
+ rsw = 0 rswmin = 0 prwb = -0.32348
+ prwg = 0.02 wr = 1 voff = -0.2184624161856
+ lvoff = 1.40215650430853E-8 voffl = 0 minv = 0
+ nfactor = 0.1665305596512 lnfactor = 1.377660857859404E-6 eta0 = 0.43504927291072
+ leta0 = -2.203309835167801E-7 etab = -1E-3 dsub = 1
+ cit = 1E-5 cdsc = 0 cdscb = 0
+ cdscd = 0 pclm = 0.54700887376 lpclm = 1.791153718043648E-7
+ pdiblc1 = 0.64689936766592 lpdiblc1 = -3.094573290590224E-7 pdiblc2 = 6.70468402944E-5
+ lpdiblc2 = 3.714898180218757E-10 pdiblcb = 0.023432469378688 lpdiblcb = -2.535536636913074E-8
+ drout = 0.7406998475232 ldrout = 1.112654083366544E-7 pscbe1 = 8.42964710528E8
+ lpscbe1 = -43.97524051961856 pscbe2 = 9.071555936672E-9 lpscbe2 = 3.343406208147534E-17
+ pvag = 0 delta = 0.01 fprout = 0
+ pdits = 0 pditsl = 0 pditsd = 0
+ lambda = 0 vtl = 0 lc = 5E-9
+ xn = 3 alpha0 = 1E-10 alpha1 = 1E-10
+ beta0 = 8.54173362784 lbeta0 = 2.765344004012042E-7 aigbacc = 0.43
+ bigbacc = 0.054 cigbacc = 0.075 nigbacc = 1
+ aigbinv = 0.35 bigbinv = 0.03 cigbinv = 6E-3
+ eigbinv = 1.1 nigbinv = 3 aigc = 0.43
+ bigc = 0.054 cigc = 0.075 aigsd = 0.43
+ bigsd = 0.054 cigsd = 0.075 dlcig = 0
+ nigc = 1 poxedge = 1 pigcd = 1
+ ntox = 1 toxref = 4.23E-9 agidl = 1E-10
+ bgidl = 1.081959267296E9 lbgidl = 45.62630332919808 cgidl = 300
+ egidl = 0.1 noia = 1.2E41 noib = 2E25
+ noic = 0 em = 4.1E7 af = 1
+ ef = 0.88 kf = 0 lintnoi = -6E-8
+ tnoia = 1.5 tnoib = 3.5 ntnoi = 1
+ rnoia = 0.577 rnoib = 0.37 xpart = 0
+ cgso = {5.932020000000001E-11/sw_func_tox_lv_ratio} cgdo = {5.932020000000001E-11/sw_func_tox_lv_ratio} cgbo = {0/sw_func_tox_lv_ratio}
+ ckappas = 0.6 cf = 1.2E-11 clc = 1E-7
+ cle = 0.6 dlc = -2.56E-9 dwc = 0
+ vfbcv = -0.1446893 noff = 4 voffcv = -0.1375
+ acde = 0.552 moin = 14.504 cgsl = {7.513892E-12/sw_func_tox_lv_ratio}
+ cgdl = {7.513892E-12/sw_func_tox_lv_ratio} ijthsrev = 0.1 ijthsfwd = 0.1
+ xjbvs = 1 bvs = 12.8 jss = 2.17E-5
+ jsws = 8.200000000000001E-10 cjs = {7.433E-04*sw_func_psd_nw_cj} mjs = 0.34629
+ mjsws = 0.26859 cjsws = {9.2435E-11*sw_func_psd_nw_cj} cjswgs = {2.4701E-10*sw_func_psd_nw_cj}
+ mjswgs = 0.70393 pbs = 0.6587 pbsws = 0.7418
+ pbswgs = 1.3925 xrcrg1 = 12 xrcrg2 = 1
+ rbpb = 50 rbpd = 50 rbps = 50
+ rbdb = 50 rbsb = 50 gbmin = 1E-12
+ tnom = 30 ute = -2.772438769344 lute = 1.393839944526971E-6
+ kt1 = -0.4504618331552 lkt1 = -2.08962834425897E-8 kt1l = 0
+ kt2 = -0.06239031679136 lkt2 = 1.556175753557278E-8 ua1 = -4.0074339781824E-9
+ lua1 = 3.44158591625805E-15 ub1 = 3.7468382087648E-18 lub1 = -3.052665123052548E-24
+ uc1 = 2.040266216537408E-10 luc1 = -2.090706655185664E-16 at = 2.578318312832E5
+ lat = -0.114039320313381 prt = 0 njs = 1.2556
+ xtis = 2 tpb = 1.9551E-3 tpbsw = 1.4242E-4
+ tpbswg = 0 tcj = 1.2407E-3 tcjsw = 0
+ tcjswg = 2E-12 tvoff = 0 tvfbsdoff = 0
+ saref = 2.75E-6 sbref = 2.74E-6 wlod = 0
+ ku0 = 4.5E-8 kvsat = 0.4 kvth0 = 2.65E-8
+ tku0 = 0 llodku0 = 0 wlodku0 = 1
+ llodvth = 0 wlodvth = 1 lku0 = 0
+ wku0 = 2.5E-7 pku0 = 0 lkvth0 = 0
+ wkvth0 = 2.5E-7 pkvth0 = 0 stk2 = 0
+ lodk2 = 1 steta0 = 0 lodeta0 = 1

.model phighvt_model.6 pmos
+ level = 54 lmin = 2.5E-7 lmax = 5E-7 wmin = 7E-6
+ wmax = 1.01E-3 version = 4.5
+ binunit = 2 mobmod = 0 capmod = 2
+ rdsmod = 0 igcmod = 0 igbmod = 0
+ rbodymod = 1 trnqsmod = 0 acnqsmod = 0
+ fnoimod = 1 tnoimod = 1 diomod = 1
+ tempmod = 0 permod = 1 geomod = 0
+ rgatemod = 0 epsrox = 3.9 toxe = 4.23E-9
+ toxm = 4.23E-9 dtox = 0 xj = 1.5E-7
+ ndep = 1.7E17 ngate = 9.999999999999999E22 nsd = 1E20
+ rsh = {swx_nrds} rshg = 0.1 phin = 0
+ wint = {9.364E-9+sw_activecd} wl = 0 wln = 1
+ ww = 0 wwn = 1 wwl = 0
+ lint = {-1.176E-8-sw_polycd} ll = 0 lln = 1
+ lw = 0 lwn = 1 lwl = 0
+ llc = 0 lwc = 0 lwlc = 0
+ wlc = 0 wwc = 0 wwlc = 0
+ dwg = -5.722E-9 dwb = -1.7864E-8 xl = 0
+ xw = 0 dmcg = 0 dmdg = 0
+ dmcgt = 0 xgw = 0 xgl = 0
+ ngcon = 1 vth0 = -1.074569583168 lvth0 = 3.800118164111322E-9
+ k1 = 0.1864214550336 lk1 = 1.533810021392097E-7 k2 = 0.11639874788736
+ lk2 = -5.30540748133507E-8 k3 = -13.778 k3b = 2
+ w0 = 0 lpe0 = 0 lpeb = 0
+ vbm = -3 dvtp0 = 0 dvtp1 = 0
+ dvt0 = 4.05 dvt1 = 0.3 dvt2 = 0.03
+ dvt0w = -4.254 dvt1w = 1.1472E6 dvt2w = -8.96E-3
+ vfbsdoff = 0 u0 = 0.0110571021088 lu0 = -1.709503311998976E-9
+ ua = -3.892222603839998E-10 lua = -4.070682842917683E-16 ub = 8.021372384000003E-19
+ lub = 2.461605497528319E-25 uc = -3.120030036410848E-11 luc = 8.539484098458069E-18
+ ud = 0 up = 0 lp = 1
+ eu = 1.67 vsat = 1.345026856E5 lvsat = -0.014180421645312
+ a0 = 1.414257456 la0 = -1.7294873536512E-7 ags = -0.564888384
+ lags = 7.853000947916798E-7 b0 = 0 b1 = 0
+ keta = 0.03131491104 lketa = -3.249798094766079E-8 a1 = 0
+ a2 = 1.218816 la2 = -1.1455455232E-7 rdsw = 531.92
+ rdswmin = 0 rdw = 0 rdwmin = 0
+ rsw = 0 rswmin = 0 prwb = -0.32348
+ prwg = 0.02 wr = 1 voff = -0.1541734073888
+ lvoff = -1.963501684221542E-8 voffl = 0 minv = 0
+ nfactor = 3.758949631456 lnfactor = -5.03042374611845E-7 eta0 = -0.50639515265024
+ leta0 = 2.725340021528936E-7 etab = -1.41028E-3 letab = 2.147897856E-10
+ dsub = 1.346256134224 ldsub = -1.812720113889484E-7 cit = 1E-5
+ cdsc = 0 cdscb = 0 cdscd = 0
+ pclm = 1.071829846224 lpclm = -9.563890369998843E-8 pdiblc1 = -0.29324550944064
+ lpdiblc1 = 1.827273170038038E-7 pdiblc2 = -7.641251795788799E-3 lpdiblc2 = 4.406938319984152E-9
+ pdiblcb = -0.025 drout = 1.3811077335136 ldrout = -2.240009281370399E-7
+ pscbe1 = 7.14070578944E8 lpscbe1 = 23.503415247237115 pscbe2 = 1.8036220104192E-8
+ lpscbe2 = -4.659746922898595E-15 pvag = 0 delta = 0.01
+ fprout = 0 pdits = 0 pditsl = 0
+ pditsd = 0 lambda = 0 vtl = 0
+ lc = 5E-9 xn = 3 alpha0 = -1.705613500224E-8
+ lalpha0 = 8.981579796372685E-15 alpha1 = 2.09408E-10 lalpha1 = -5.727727616E-17
+ beta0 = 0.777889648192002 lbeta0 = 4.341062000626523E-6 aigbacc = 0.43
+ bigbacc = 0.054 cigbacc = 0.075 nigbacc = 1
+ aigbinv = 0.35 bigbinv = 0.03 cigbinv = 6E-3
+ eigbinv = 1.1 nigbinv = 3 aigc = 0.43
+ bigc = 0.054 cigc = 0.075 aigsd = 0.43
+ bigsd = 0.054 cigsd = 0.075 dlcig = 0
+ nigc = 1 poxedge = 1 pigcd = 1
+ ntox = 1 toxref = 4.23E-9 agidl = 1E-10
+ bgidl = 1.089046440928E9 lbgidl = 41.91602618937343 cgidl = 300
+ egidl = 0.1 noia = 1.2E41 noib = 2E25
+ noic = 0 em = 4.1E7 af = 1
+ ef = 0.88 kf = 0 lintnoi = -6E-8
+ tnoia = 1.5 tnoib = 3.5 ntnoi = 1
+ rnoia = 0.577 rnoib = 0.37 xpart = 0
+ cgso = {5.932020000000001E-11/sw_func_tox_lv_ratio} cgdo = {5.932020000000001E-11/sw_func_tox_lv_ratio} cgbo = {0/sw_func_tox_lv_ratio}
+ ckappas = 0.6 cf = 1.2E-11 clc = 1E-7
+ cle = 0.6 dlc = -2.56E-9 dwc = 0
+ vfbcv = -0.1446893 noff = 4 voffcv = -0.1375
+ acde = 0.552 moin = 14.504 cgsl = {7.513892E-12/sw_func_tox_lv_ratio}
+ cgdl = {7.513892E-12/sw_func_tox_lv_ratio} ijthsrev = 0.1 ijthsfwd = 0.1
+ xjbvs = 1 bvs = 12.8 jss = 2.17E-5
+ jsws = 8.200000000000001E-10 cjs = {7.433E-04*sw_func_psd_nw_cj} mjs = 0.34629
+ mjsws = 0.26859 cjsws = {9.2435E-11*sw_func_psd_nw_cj} cjswgs = {2.4701E-10*sw_func_psd_nw_cj}
+ mjswgs = 0.70393 pbs = 0.6587 pbsws = 0.7418
+ pbswgs = 1.3925 xrcrg1 = 12 xrcrg2 = 1
+ rbpb = 50 rbpd = 50 rbps = 50
+ rbdb = 50 rbsb = 50 gbmin = 1E-12
+ tnom = 30 ute = -0.1756448 lute = 3.4366365696E-8
+ kt1 = -0.4832542079104 lkt1 = -3.728819410747396E-9 kt1l = 0
+ kt2 = -0.026421654776 lkt2 = -3.268556402708478E-9 ua1 = 4.058230268704E-9
+ lua1 = -7.809506302719181E-16 ub1 = -3.5516770096064E-18 lub1 = 7.682535640691424E-25
+ uc1 = -3.279197338524799E-10 luc1 = 6.941389051605031E-17 at = 3.421565593216001E4
+ lat = 3.028219806395594E-3 prt = 0 njs = 1.2556
+ xtis = 2 tpb = 1.9551E-3 tpbsw = 1.4242E-4
+ tpbswg = 0 tcj = 1.2407E-3 tcjsw = 0
+ tcjswg = 2E-12 tvoff = 0 tvfbsdoff = 0
+ saref = 1.75E-6 sbref = 1.74E-6 wlod = 0
+ ku0 = 4.5E-8 kvsat = 0.4 kvth0 = 2.65E-8
+ tku0 = 0 llodku0 = 0 wlodku0 = 1
+ llodvth = 0 wlodvth = 1 lku0 = 0
+ wku0 = 2.5E-7 pku0 = 0 lkvth0 = 0
+ wkvth0 = 2.5E-7 pkvth0 = 0 stk2 = 0
+ lodk2 = 1 steta0 = 0 lodeta0 = 1

.model phighvt_model.7 pmos
+ level = 54 lmin = 1.8E-7 lmax = 2.5E-7 wmin = 7E-6
+ wmax = 1.01E-3 version = 4.5
+ binunit = 2 mobmod = 0 capmod = 2
+ rdsmod = 0 igcmod = 0 igbmod = 0
+ rbodymod = 1 trnqsmod = 0 acnqsmod = 0
+ fnoimod = 1 tnoimod = 1 diomod = 1
+ tempmod = 0 permod = 1 geomod = 0
+ rgatemod = 0 epsrox = 3.9 toxe = 4.23E-9
+ toxm = 4.23E-9 dtox = 0 xj = 1.5E-7
+ ndep = 1.7E17 ngate = 9.999999999999999E22 nsd = 1E20
+ rsh = {swx_nrds} rshg = 0.1 phin = 0
+ wint = {9.364E-9+sw_activecd} wl = 0 wln = 1
+ ww = 0 wwn = 1 wwl = 0
+ lint = {-1.176E-8-sw_polycd} ll = 0 lln = 1
+ lw = 0 lwn = 1 lwl = 0
+ llc = 0 lwc = 0 lwlc = 0