* Copyright 2020 The SkyWater PDK Authors
*
* Licensed under the Apache License, Version 2.0 (the "License");
* you may not use this file except in compliance with the License.
* You may obtain a copy of the License at
*
*     https://www.apache.org/licenses/LICENSE-2.0
*
* Unless required by applicable law or agreed to in writing, software
* distributed under the License is distributed on an "AS IS" BASIS,
* WITHOUT WARRANTIES OR CONDITIONS OF ANY KIND, either express or implied.
* See the License for the specific language governing permissions and
* limitations under the License.

******************************************************************
******************************************************************
*  *****************************************************
*  04/24/2021 Usman Suriono
*      Why     : New scalable sky130_fd_pr__pfet_01v8 model
*      What    : Converted from discrete pshort model
*                Replaced rsh from 1 to calculated rsh from the original model.
*                PDK netlist nrd/nrs = ratio of distance the middle of the contact to Gate.
*
*  *****************************************************
*
*  Pmos Model
*  -----------------------------------------------------

.subckt  sky130_fd_pr__pfet_01v8  d g s b  mult=1
+ 
.param  l = 1 w = 1 nf = 1 ad = 0 as = 0 pd = 0 ps = 0 nrd = {0.14/w} nrs = {0.14/w} sa = 0 sb = 0 sd = 0
+ swx_nrds = {361*nf/w+1489}

Msky130_fd_pr__pfet_01v8  d g s b pshort_model l = {l} w = {w} ad = {ad} as = {as} pd = {pd} ps = {ps} nrd = {nrd} nrs = {nrs} sa = {sa} sb = {sb} sd = {sd} nf = {nf}
* + deltox = 0.3*(sw_tox_lv_corner - sw_tox_lv_nom) + sw_tox_lv_mc + sw_mm_tox_lv * mismatch_factor*MC_MM_SWITCH*AGAUSS(0,1.0,1)/sqrt(l*w*mult)
+ delvto = {(sw_vth0_sky130_fd_pr__pfet_01v8+sw_vth0_sky130_fd_pr__pfet_01v8_mc)*(0.0230*8/l+0.9770)*(0.028*7/w+0.972)*(0.0005*56/(w*l)+0.9995)+sw_mm_vth0_sky130_fd_pr__pfet_01v8*mismatch_factor*MC_MM_SWITCH*AGAUSS(0,1.0,1)/sqrt(l*w*mult)}
* + mulu0  = sw_u0_sky130_fd_pr__pfet_01v8
* + mulvsat= sw_vsat_sky130_fd_pr__pfet_01v8



.model pshort_model.1 pmos
+ level = 54 lmin = 8E-6 lmax = 2.02E-5 wmin = 7E-6
+ wmax = 1.01E-3 version = 4.5
+ binunit = 2 mobmod = 0 capmod = 2
+ rdsmod = 0 igcmod = 0 igbmod = 0
+ rbodymod = 1 trnqsmod = 0 acnqsmod = 0
+ fnoimod = 1 tnoimod = 1 diomod = 1
+ tempmod = 0 permod = 1 geomod = 0
+ rgatemod = 0 epsrox = 3.9 toxe = 4.23E-9
+ toxm = 4.23E-9 dtox = 0 xj = 1.5E-7
+ ndep = 1.7E17 ngate = 9.999999999999999E22 nsd = 1E20
+ rsh = {swx_nrds} rshg = 0.1 phin = 0
+ wint = {7.3039E-9+sw_activecd} wl = 0 wln = 1
+ ww = 0 wwn = 1 wwl = 0
+ lint = {-1.3994E-8-sw_polycd} ll = 0 lln = 1
+ lw = 0 lwn = 1 lwl = 0
+ llc = 0 lwc = 0 lwlc = 0
+ wlc = 0 wwc = 0 wwlc = 0
+ dwg = -5.722E-9 dwb = -1.7864E-8 xl = 0
+ xw = 0 dmcg = 0 dmdg = 0
+ dmcgt = 0 xgw = 0 xgl = 0
+ ngcon = 1 vth0 = -1.05955351 k1 = 0.43448553
+ k2 = 0.019777346 k3 = -15.845 k3b = 2
+ w0 = 0 lpe0 = 0 lpeb = 0
+ vbm = -3 dvtp0 = 0 dvtp1 = 0
+ dvt0 = 4.4955 dvt1 = 0.294 dvt2 = 0.015
+ dvt0w = -4.9772 dvt1w = 1.1472E6 dvt2w = -8.96E-3
+ vfbsdoff = 0 u0 = 0.0104766 ua = -5.6585471E-10
+ ub = 9.3302446E-19 uc = -6.6549964E-11 ud = 0
+ up = 0 lp = 1 eu = 1.67
+ vsat = 1.603125E5 a0 = 1.23682 ags = 0.2261248
+ b0 = 0 b1 = 0 keta = 5.1290095E-3
+ a1 = 0 a2 = 0.9995 rdsw = 547.88
+ rdswmin = 0 rdw = 0 rdwmin = 0
+ rsw = 0 rswmin = 0 prwb = -0.32348
+ prwg = 0.1376 wr = 1 voff = -0.25706245
+ voffl = 0 minv = 0 nfactor = 1.3376708
+ eta0 = 0.08 etab = -0.07 dsub = 0.56
+ cit = 1E-5 cdsc = 1.3E-4 cdscb = 7.8E-4
+ cdscd = 0 pclm = 1.5228006E-3 pdiblc1 = 0.39
+ pdiblc2 = 2.9632464E-3 pdiblcb = -0.025 drout = 0.56
+ pscbe1 = 8E8 pscbe2 = 9.3760948E-9 pvag = 0
+ delta = 0.01 fprout = 0 pdits = 0
+ pditsl = 0 pditsd = 0 lambda = 0
+ vtl = 0 lc = 5E-9 xn = 3
+ alpha0 = 1E-10 alpha1 = 1E-10 beta0 = 4.6464006
+ aigbacc = 0.43 bigbacc = 0.054 cigbacc = 0.075
+ nigbacc = 1 aigbinv = 0.35 bigbinv = 0.03
+ cigbinv = 6E-3 eigbinv = 1.1 nigbinv = 3
+ aigc = 0.43 bigc = 0.054 cigc = 0.075
+ aigsd = 0.43 bigsd = 0.054 cigsd = 0.075
+ dlcig = 0 nigc = 1 poxedge = 1
+ pigcd = 1 ntox = 1 toxref = 4.23E-9
+ agidl = 1E-10 bgidl = 1.181082E9 cgidl = 300
+ egidl = 0.1 noia = 1.5E42 noib = 0
+ noic = 0 em = 4.1E7 af = 1
+ ef = 1 kf = 0 lintnoi = -2E-7
+ tnoia = 2.5E7 tnoib = 0 ntnoi = 1
+ rnoia = 0.69 rnoib = 0.34 xpart = 0
+ cgso = {5.248925E-11/sw_func_tox_lv_ratio} cgdo = {5.248925E-11/sw_func_tox_lv_ratio} cgbo = {0/sw_func_tox_lv_ratio}
+ ckappas = 0.6 cf = 1.2E-11 clc = 1E-7
+ cle = 0.6 dlc = -3E-9 dwc = 0
+ vfbcv = -0.14469 noff = 3.9 voffcv = -0.10701
+ acde = 0.8 moin = 18.13 cgsl = {9.548271750000001E-12/sw_func_tox_lv_ratio}
+ cgdl = {9.548271750000001E-12/sw_func_tox_lv_ratio} ijthsrev = 0.1 ijthsfwd = 0.1
+ xjbvs = 1 bvs = 12.69 jss = 2.1483E-5
+ jsws = 8.040000000000001E-10 cjs = {sw_psd_nw_cj} mjs = 0.34629
+ mjsws = 0.29781 cjsws = {9.888891999999999E-11*sw_func_psd_nw_cj} cjswgs = {2.39155046E-10*sw_func_psd_nw_cj}
+ mjswgs = 0.9274 pbs = 0.6587 pbsws = 0.7418
+ pbswgs = 1.4338 xrcrg1 = 12 xrcrg2 = 1
+ rbpb = 50 rbpd = 50 rbps = 50
+ rbdb = 50 rbsb = 50 gbmin = 1E-12
+ tnom = 30 ute = -0.33954 kt1 = -0.4485
+ kt1l = 0 kt2 = -7.5706E-3 ua1 = 1.6104E-9
+ ub1 = -5.609E-19 uc1 = -1.0858E-10 at = 9.09E4
+ prt = 0 njs = 1.3632 xtis = 5.2
+ tpb = 2.0386E-3 tpbsw = 1.246E-3 tpbswg = 0
+ tcj = 1.2407E-3 tcjsw = 3.7357E-4 tcjswg = 2E-12
+ tvoff = 0 tvfbsdoff = 0 saref = 3E-6
+ sbref = 3E-6 wlod = 0 ku0 = 4.5E-8
+ kvsat = 0.5 kvth0 = 3.29E-8 tku0 = 0
+ llodku0 = 0 wlodku0 = 1 llodvth = 0
+ wlodvth = 1 lku0 = 0 wku0 = 2.5E-7
+ pku0 = 0 lkvth0 = 0 wkvth0 = 2E-7
+ pkvth0 = 0 stk2 = 0 lodk2 = 1
+ steta0 = 0 lodeta0 = 1

.model pshort_model.2 pmos
+ level = 54 lmin = 4E-6 lmax = 8E-6 wmin = 7E-6
+ wmax = 1.01E-3 version = 4.5
+ binunit = 2 mobmod = 0 capmod = 2
+ rdsmod = 0 igcmod = 0 igbmod = 0
+ rbodymod = 1 trnqsmod = 0 acnqsmod = 0
+ fnoimod = 1 tnoimod = 1 diomod = 1
+ tempmod = 0 permod = 1 geomod = 0
+ rgatemod = 0 epsrox = 3.9 toxe = 4.23E-9
+ toxm = 4.23E-9 dtox = 0 xj = 1.5E-7
+ ndep = 1.7E17 ngate = 9.999999999999999E22 nsd = 1E20
+ rsh = {swx_nrds} rshg = 0.1 phin = 0
+ wint = {7.3039E-9+sw_activecd} wl = 0 wln = 1
+ ww = 0 wwn = 1 wwl = 0
+ lint = {-1.3994E-8-sw_polycd} ll = 0 lln = 1
+ lw = 0 lwn = 1 lwl = 0
+ llc = 0 lwc = 0 lwlc = 0
+ wlc = 0 wwc = 0 wwlc = 0
+ dwg = -5.722E-9 dwb = -1.7864E-8 xl = 0
+ xw = 0 dmcg = 0 dmdg = 0
+ dmcgt = 0 xgw = 0 xgl = 0
+ ngcon = 1 vth0 = -1.06313713036384 lvth0 = 2.876926127746328E-8
+ k1 = 0.43813350754211 lk1 = -2.92859199323287E-8 k2 = 0.018505134186116
+ lk2 = 1.021330117531898E-8 k3 = -15.845 k3b = 2
+ w0 = 0 lpe0 = 0 lpeb = 0
+ vbm = -3 dvtp0 = 0 dvtp1 = 0
+ dvt0 = 4.4955 dvt1 = 0.294 dvt2 = 0.015
+ dvt0w = -4.9772 dvt1w = 1.1472E6 dvt2w = -8.96E-3
+ vfbsdoff = 0 u0 = 0.0102870831646 lu0 = 1.521438880389171E-9
+ ua = -5.773510610405899E-10 lua = 9.229256819764354E-17 ub = 9.280149419541299E-19
+ lub = 4.021635075802814E-26 uc = -7.3225399476844E-11 luc = 5.359031590287793E-17
+ ud = 0 up = 0 lp = 1
+ eu = 1.67 vsat = 2.67935304375E5 lvsat = -0.863994582048848
+ a0 = 1.328853483818 la0 = -7.38843703689098E-7 ags = 0.15379317220712
+ lags = 5.806774399417075E-7 b0 = 0 b1 = 0
+ keta = 0.021456825908407 lketa = -1.310795141928905E-7 a1 = 0
+ a2 = 1.2003959015 la2 = -1.612789886491182E-6 rdsw = 547.88
+ rdswmin = 0 rdw = 0 rdwmin = 0
+ rsw = 0 rswmin = 0 prwb = -0.32348
+ prwg = 0.1376 wr = 1 voff = -0.26700524634887
+ lvoff = 7.982064977517224E-8 voffl = 0 minv = 0
+ nfactor = 1.1833079277709 lnfactor = 1.239223285900749E-6 eta0 = 0.08
+ etab = -0.07 dsub = 0.56 cit = 1E-5
+ cdsc = 1.3E-4 cdscb = 7.8E-4 cdscd = 0
+ pclm = -0.433600672985592 lpclm = 3.493166024463448E-6 pdiblc1 = 0.39
+ pdiblc2 = 5.78918120501261E-3 lpdiblc2 = -2.268657070342358E-8 pdiblcb = -0.025
+ drout = 0.56 pscbe1 = 8E8 pscbe2 = 1.01417218694784E-8
+ lpscbe2 = -6.146444926247763E-15 pvag = 0 delta = 0.01
+ fprout = 0 pdits = 0 pditsl = 0
+ pditsd = 0 lambda = 0 vtl = 0
+ lc = 5E-9 xn = 3 alpha0 = 1E-10
+ alpha1 = 1E-10 beta0 = 3.2444736759574 lbeta0 = 1.12546525230909E-5
+ aigbacc = 0.43 bigbacc = 0.054 cigbacc = 0.075
+ nigbacc = 1 aigbinv = 0.35 bigbinv = 0.03
+ cigbinv = 6E-3 eigbinv = 1.1 nigbinv = 3
+ aigc = 0.43 bigc = 0.054 cigc = 0.075
+ aigsd = 0.43 bigsd = 0.054 cigsd = 0.075
+ dlcig = 0 nigc = 1 poxedge = 1
+ pigcd = 1 ntox = 1 toxref = 4.23E-9
+ agidl = 8.426709174077001E-11 lagidl = 1.263035987101993E-16 bgidl = 1.363431030754E9
+ lbgidl = -1.463895830704743E3 cgidl = 300 egidl = 0.1
+ noia = 1.5E42 noib = 0 noic = 0
+ em = 4.1E7 af = 1 ef = 1
+ kf = 0 lintnoi = -2E-7 tnoia = 2.5E7
+ tnoib = 0 ntnoi = 1 rnoia = 0.69
+ rnoib = 0.34 xpart = 0 cgso = {5.248925E-11/sw_func_tox_lv_ratio}
+ cgdo = {5.248925E-11/sw_func_tox_lv_ratio} cgbo = {0/sw_func_tox_lv_ratio} ckappas = 0.6
+ cf = 1.2E-11 clc = 1E-7 cle = 0.6
+ dlc = -3E-9 dwc = 0 vfbcv = -0.14469
+ noff = 3.9 voffcv = -0.10701 acde = 0.8
+ moin = 18.13 cgsl = {9.548271750000001E-12/sw_func_tox_lv_ratio} cgdl = {9.548271750000001E-12/sw_func_tox_lv_ratio}
+ ijthsrev = 0.1 ijthsfwd = 0.1 xjbvs = 1
+ bvs = 12.69 jss = 2.1483E-5 jsws = 8.040000000000001E-10
+ cjs = {sw_psd_nw_cj} mjs = 0.34629 mjsws = 0.29781
+ cjsws = {9.888891999999999E-11*sw_func_psd_nw_cj} cjswgs = {2.39155046E-10*sw_func_psd_nw_cj} mjswgs = 0.9274
+ pbs = 0.6587 pbsws = 0.7418 pbswgs = 1.4338
+ xrcrg1 = 12 xrcrg2 = 1 rbpb = 50
+ rbpd = 50 rbps = 50 rbdb = 50
+ rbsb = 50 gbmin = 1E-12 tnom = 30
+ ute = -0.47442366324068 lute = 1.08284442989222E-6 kt1 = -0.43157364924622
+ lkt1 = -1.358845407351367E-7 kt1l = 0 kt2 = 9.803815075927001E-3
+ lkt2 = -1.39481595736561E-7 ua1 = 1.2238699414329E-9 lua1 = 3.103058671815977E-15
+ ub1 = -2.993962520201601E-19 lub1 = -2.099348950737179E-24 uc1 = -8.830298756835999E-11
+ luc1 = -1.627836124770568E-16 at = 8.786010766631E4 lat = 0.024404219176155
+ prt = 0 njs = 1.3632 xtis = 5.2
+ tpb = 2.0386E-3 tpbsw = 1.246E-3 tpbswg = 0
+ tcj = 1.2407E-3 tcjsw = 3.7357E-4 tcjswg = 2E-12
+ tvoff = 0 tvfbsdoff = 0 saref = 3E-6
+ sbref = 3E-6 wlod = 0 ku0 = 4.5E-8
+ kvsat = 0.5 kvth0 = 3.29E-8 tku0 = 0
+ llodku0 = 0 wlodku0 = 1 llodvth = 0
+ wlodvth = 1 lku0 = 0 wku0 = 2.5E-7
+ pku0 = 0 lkvth0 = 0 wkvth0 = 2E-7
+ pkvth0 = 0 stk2 = 0 lodk2 = 1
+ steta0 = 0 lodeta0 = 1

.model pshort_model.3 pmos
+ level = 54 lmin = 2E-6 lmax = 4E-6 wmin = 7E-6
+ wmax = 1.01E-3 version = 4.5
+ binunit = 2 mobmod = 0 capmod = 2
+ rdsmod = 0 igcmod = 0 igbmod = 0
+ rbodymod = 1 trnqsmod = 0 acnqsmod = 0
+ fnoimod = 1 tnoimod = 1 diomod = 1
+ tempmod = 0 permod = 1 geomod = 0
+ rgatemod = 0 epsrox = 3.9 toxe = 4.23E-9
+ toxm = 4.23E-9 dtox = 0 xj = 1.5E-7
+ ndep = 1.7E17 ngate = 9.999999999999999E22 nsd = 1E20
+ rsh = {swx_nrds} rshg = 0.1 phin = 0
+ wint = {7.3039E-9+sw_activecd} wl = 0 wln = 1
+ ww = 0 wwn = 1 wwl = 0
+ lint = {-1.3994E-8-sw_polycd} ll = 0 lln = 1
+ lw = 0 lwn = 1 lwl = 0
+ llc = 0 lwc = 0 lwlc = 0
+ wlc = 0 wwc = 0 wwlc = 0
+ dwg = -5.722E-9 dwb = -1.7864E-8 xl = 0
+ xw = 0 dmcg = 0 dmdg = 0
+ dmcgt = 0 xgw = 0 xgl = 0
+ ngcon = 1 vth0 = -1.06465013124466 lvth0 = 3.486361066939505E-8
+ k1 = 0.4242721924985 lk1 = 2.654729072755209E-8 k2 = 0.023299152360404
+ lk2 = -9.096946502494982E-9 k3 = -15.845 k3b = 2
+ w0 = 0 lpe0 = 0 lpeb = 0
+ vbm = -3 dvtp0 = 0 dvtp1 = 0
+ dvt0 = 4.4955 dvt1 = 0.294 dvt2 = 0.015
+ dvt0w = -4.9772 dvt1w = 1.1472E6 dvt2w = -8.96E-3
+ vfbsdoff = 0 u0 = 0.0121663223152 lu0 = -6.048113867357822E-9
+ ua = -2.310026979311001E-10 lua = -1.302794482227024E-15 ub = 7.527581526871801E-19
+ lub = 7.461485948438308E-25 uc = -8.0891709259708E-11 luc = 8.447011971253669E-17
+ ud = 0 up = 0 lp = 1
+ eu = 1.67 vsat = 5.34375E4 a0 = 1.171646870846
+ la0 = -1.056173531172382E-7 ags = 0.09441453032174 lags = 8.198538969123151E-7
+ b0 = 0 b1 = 0 keta = -5.464761922144001E-3
+ lketa = -2.263968147048703E-8 a1 = 0 a2 = 0.8
+ rdsw = 547.88 rdswmin = 0 rdw = 0
+ rdwmin = 0 rsw = 0 rswmin = 0
+ prwb = -0.32348 prwg = 0.1376 wr = 1
+ voff = -0.25410325634546 lvoff = 2.785158886531673E-8 voffl = 0
+ minv = 0 nfactor = 1.514261668126 lnfactor = -9.385440880471083E-8
+ eta0 = 0.160612523 leta0 = -3.24706275293724E-7 etab = -0.140472582563983
+ letab = 2.838627168967311E-7 dsub = 0.8641982 ldsub = -1.2253066992216E-6
+ cit = 1E-5 cdsc = 1.3E-4 cdscb = 7.8E-4
+ cdscd = 0 pclm = 0.46461195637154 lpclm = -1.248236680355267E-7
+ pdiblc1 = 0.39 pdiblc2 = -2.158869170793999E-5 lpdiblc2 = 7.191407113280418E-10
+ pdiblcb = -0.025 drout = 0.56 pscbe1 = 8E8
+ pscbe2 = 8.286433932649798E-9 lpscbe2 = 1.326632619842603E-15 pvag = 0
+ delta = 0.01 fprout = 0 pdits = 0
+ pditsl = 0 pditsd = 0 lambda = 0
+ vtl = 0 lc = 5E-9 xn = 3
+ alpha0 = 1E-10 alpha1 = 1E-10 beta0 = 3.8949963916396
+ lbeta0 = 8.63435483059559E-6 aigbacc = 0.43 bigbacc = 0.054
+ cigbacc = 0.075 nigbacc = 1 aigbinv = 0.35
+ bigbinv = 0.03 cigbinv = 6E-3 eigbinv = 1.1
+ nigbinv = 3 aigc = 0.43 bigc = 0.054
+ cigc = 0.075 aigsd = 0.43 bigsd = 0.054
+ cigsd = 0.075 dlcig = 0 nigc = 1
+ poxedge = 1 pigcd = 1 ntox = 1
+ toxref = 4.23E-9 agidl = 1.3146581651846E-10 lagidl = -6.381229830963865E-17
+ bgidl = 9.172524112336E8 lbgidl = 333.306294579994 cgidl = 300
+ egidl = 0.1 noia = 1.5E42 noib = 0
+ noic = 0 em = 4.1E7 af = 1
+ ef = 1 kf = 0 lintnoi = -2E-7
+ tnoia = 2.5E7 tnoib = 0 ntnoi = 1
+ rnoia = 0.69 rnoib = 0.34 xpart = 0
+ cgso = {5.248925E-11/sw_func_tox_lv_ratio} cgdo = {5.248925E-11/sw_func_tox_lv_ratio} cgbo = {0/sw_func_tox_lv_ratio}
+ ckappas = 0.6 cf = 1.2E-11 clc = 1E-7
+ cle = 0.6 dlc = -3E-9 dwc = 0
+ vfbcv = -0.14469 noff = 3.9 voffcv = -0.10701
+ acde = 0.8 moin = 18.13 cgsl = {9.548271750000001E-12/sw_func_tox_lv_ratio}
+ cgdl = {9.548271750000001E-12/sw_func_tox_lv_ratio} ijthsrev = 0.1 ijthsfwd = 0.1
+ xjbvs = 1 bvs = 12.69 jss = 2.1483E-5
+ jsws = 8.040000000000001E-10 cjs = {sw_psd_nw_cj} mjs = 0.34629
+ mjsws = 0.29781 cjsws = {9.888891999999999E-11*sw_func_psd_nw_cj} cjswgs = {2.39155046E-10*sw_func_psd_nw_cj}
+ mjswgs = 0.9274 pbs = 0.6587 pbsws = 0.7418
+ pbswgs = 1.4338 xrcrg1 = 12 xrcrg2 = 1
+ rbpb = 50 rbpd = 50 rbps = 50
+ rbdb = 50 rbsb = 50 gbmin = 1E-12
+ tnom = 30 ute = -0.17571011240618 lute = -1.203701683065358E-7
+ kt1 = -0.46636744099546 lkt1 = 4.264434905300925E-9 kt1l = 0
+ kt2 = -5.478318739885996E-3 lkt2 = -7.792534411207208E-8 ua1 = 2.345249984031E-9
+ lua1 = -1.41384668320866E-15 ub1 = -1.03151249939108E-18 lub1 = 8.496065082779174E-25
+ uc1 = -2.42518521215026E-10 luc1 = 4.583947064653101E-16 at = 1.07038244165516E5
+ lat = -0.052845084505008 prt = 0 njs = 1.3632
+ xtis = 5.2 tpb = 2.0386E-3 tpbsw = 1.246E-3
+ tpbswg = 0 tcj = 1.2407E-3 tcjsw = 3.7357E-4
+ tcjswg = 2E-12 tvoff = 0 tvfbsdoff = 0
+ saref = 3E-6 sbref = 3E-6 wlod = 0
+ ku0 = 4.5E-8 kvsat = 0.5 kvth0 = 3.29E-8
+ tku0 = 0 llodku0 = 0 wlodku0 = 1
+ llodvth = 0 wlodvth = 1 lku0 = 0
+ wku0 = 2.5E-7 pku0 = 0 lkvth0 = 0
+ wkvth0 = 2E-7 pkvth0 = 0 stk2 = 0
+ lodk2 = 1 steta0 = 0 lodeta0 = 1

.model pshort_model.4 pmos
+ level = 54 lmin = 1E-6 lmax = 2E-6 wmin = 7E-6
+ wmax = 1.01E-3 version = 4.5
+ binunit = 2 mobmod = 0 capmod = 2
+ rdsmod = 0 igcmod = 0 igbmod = 0
+ rbodymod = 1 trnqsmod = 0 acnqsmod = 0
+ fnoimod = 1 tnoimod = 1 diomod = 1
+ tempmod = 0 permod = 1 geomod = 0
+ rgatemod = 0 epsrox = 3.9 toxe = 4.23E-9
+ toxm = 4.23E-9 dtox = 0 xj = 1.5E-7
+ ndep = 1.7E17 ngate = 9.999999999999999E22 nsd = 1E20
+ rsh = {swx_nrds} rshg = 0.1 phin = 0
+ wint = {7.3039E-9+sw_activecd} wl = 0 wln = 1
+ ww = 0 wwn = 1 wwl = 0
+ lint = {-1.3994E-8-sw_polycd} ll = 0 lln = 1
+ lw = 0 lwn = 1 lwl = 0
+ llc = 0 lwc = 0 lwlc = 0
+ wlc = 0 wwc = 0 wwlc = 0
+ dwg = -5.722E-9 dwb = -1.7864E-8 xl = 0
+ xw = 0 dmcg = 0 dmdg = 0
+ dmcgt = 0 xgw = 0 xgl = 0
+ ngcon = 1 vth0 = -1.0639711628476 lvth0 = 3.34866709077786E-8
+ k1 = 0.354542539783 lk1 = 1.679581896787533E-7 k2 = 0.051575195178736
+ lk2 = -6.644042202555847E-8 k3 = -15.845 k3b = 2
+ w0 = 0 lpe0 = 0 lpeb = 0
+ vbm = -3 dvtp0 = 0 dvtp1 = 0
+ dvt0 = 4.4955 dvt1 = 0.294 dvt2 = 0.015
+ dvt0w = -4.9772 dvt1w = 1.1472E6 dvt2w = -8.96E-3
+ vfbsdoff = 0 u0 = 9.785784175199999E-3 lu0 = -1.220411085895497E-9
+ ua = -7.482355275187199E-10 lua = -2.538525106172862E-16 ub = 1.05727653665008E-18
+ lub = 1.285889663876778E-25 uc = -4.298706539394E-11 luc = 7.599956808485589E-18
+ ud = 0 up = 0 lp = 1
+ eu = 1.67 vsat = 3.512646375E4 lvsat = 0.037134561782565
+ a0 = 1.293787322276 la0 = -3.533167229318607E-7 ags = 0.3713411399114
+ lags = 2.582500557837996E-7 b0 = 0 b1 = 0
+ keta = -6.680825932651995E-3 lketa = -2.017351824994494E-8 a1 = 0
+ a2 = 0.6972012 la2 = 2.084747328143999E-7 rdsw = 547.88
+ rdswmin = 0 rdw = 0 rdwmin = 0
+ rsw = 0 rswmin = 0 prwb = -0.32348
+ prwg = 0.1376 wr = 1 voff = -0.2479929006116
+ lvoff = 1.545986076131745E-8 voffl = 0 minv = 0
+ nfactor = 1.2665691307516 lnfactor = 4.084630846801242E-7 eta0 = -0.502700126
+ leta0 = 1.020483817126488E-6 etab = 7.645320704060766 letab = -1.550563263885882E-5
+ dsub = 0.26 cit = 1E-5 cdsc = 1.3E-4
+ cdscb = 7.8E-4 cdscd = 0 pclm = 0.18260436541916
+ lpclm = 4.470843423248086E-7 pdiblc1 = 0.40860196713388 lpdiblc1 = -3.772456612390311E-8
+ pdiblc2 = 2.3332426360864E-4 lpdiblc2 = 2.021802969014813E-10 pdiblcb = -0.049934208571322
+ lpdiblcb = 5.0566275772138E-8 drout = 0.40005836936472 ldrout = 3.243597076287802E-7
+ pscbe1 = 7.9955987E8 pscbe2 = 8.9405959E-9 pvag = 0
+ delta = 0.01 fprout = 0 pdits = 0
+ pditsl = 0 pditsd = 0 lambda = 0
+ vtl = 0 lc = 5E-9 xn = 3
+ alpha0 = -4.5896723869156E-5 lalpha0 = 9.307820804476194E-11 alpha1 = 2.027988E-10
+ lalpha1 = -2.084747328144E-16 beta0 = -14.198337403152 lbeta0 = 4.532741864642742E-5
+ aigbacc = 0.43 bigbacc = 0.054 cigbacc = 0.075
+ nigbacc = 1 aigbinv = 0.35 bigbinv = 0.03
+ cigbinv = 6E-3 eigbinv = 1.1 nigbinv = 3
+ aigc = 0.43 bigc = 0.054 cigc = 0.075
+ aigsd = 0.43 bigsd = 0.054 cigsd = 0.075
+ dlcig = 0 nigc = 1 poxedge = 1
+ pigcd = 1 ntox = 1 toxref = 4.23E-9
+ agidl = 1E-10 bgidl = 7.978149151704E8 lbgidl = 575.5241033462108
+ cgidl = 300 egidl = 0.1 noia = 1.5E42
+ noib = 0 noic = 0 em = 4.1E7
+ af = 1 ef = 1 kf = 0
+ lintnoi = -2E-7 tnoia = 2.5E7 tnoib = 0
+ ntnoi = 1 rnoia = 0.69 rnoib = 0.34
+ xpart = 0 cgso = {5.248925E-11/sw_func_tox_lv_ratio} cgdo = {5.248925E-11/sw_func_tox_lv_ratio}
+ cgbo = {0/sw_func_tox_lv_ratio} ckappas = 0.6 cf = 1.2E-11
+ clc = 1E-7 cle = 0.6 dlc = -3E-9
+ dwc = 0 vfbcv = -0.14469 noff = 3.9
+ voffcv = -0.10701 acde = 0.8 moin = 18.13
+ cgsl = {9.548271750000001E-12/sw_func_tox_lv_ratio} cgdl = {9.548271750000001E-12/sw_func_tox_lv_ratio} ijthsrev = 0.1
+ ijthsfwd = 0.1 xjbvs = 1 bvs = 12.69
+ jss = 2.1483E-5 jsws = 8.040000000000001E-10 cjs = {sw_psd_nw_cj}
+ mjs = 0.34629 mjsws = 0.29781 cjsws = {9.888891999999999E-11*sw_func_psd_nw_cj}
+ cjswgs = {2.39155046E-10*sw_func_psd_nw_cj} mjswgs = 0.9274 pbs = 0.6587
+ pbsws = 0.7418 pbswgs = 1.4338 xrcrg1 = 12
+ xrcrg2 = 1 rbpb = 50 rbpd = 50
+ rbps = 50 rbdb = 50 rbsb = 50
+ gbmin = 1E-12 tnom = 30 ute = -0.16467132300088
+ lute = -1.427567007550114E-7 kt1 = -0.45620503904216 lkt1 = -1.634479430716797E-8
+ kt1l = 0 kt2 = -0.040349144324356 lkt2 = -7.20772827667392E-9
+ ua1 = 1.4159172613352E-9 lua1 = 4.708289264257502E-16 ub1 = -8.959962135999941E-21
+ lub1 = -1.224117766644938E-24 uc1 = -2.1606649321236E-11 luc1 = 1.038808120716675E-17
+ at = 7.0857671813008E4 lat = 0.02052868205901 prt = 0
+ njs = 1.3632 xtis = 5.2 tpb = 2.0386E-3
+ tpbsw = 1.246E-3 tpbswg = 0 tcj = 1.2407E-3
+ tcjsw = 3.7357E-4 tcjswg = 2E-12 tvoff = 0
+ tvfbsdoff = 0 saref = 3E-6 sbref = 3E-6
+ wlod = 0 ku0 = 4.5E-8 kvsat = 0.5
+ kvth0 = 3.29E-8 tku0 = 0 llodku0 = 0
+ wlodku0 = 1 llodvth = 0 wlodvth = 1
+ lku0 = 0 wku0 = 2.5E-7 pku0 = 0
+ lkvth0 = 0 wkvth0 = 2E-7 pkvth0 = 0
+ stk2 = 0 lodk2 = 1 steta0 = 0
+ lodeta0 = 1

.model pshort_model.5 pmos
+ level = 54 lmin = 5E-7 lmax = 1E-6 wmin = 7E-6
+ wmax = 1.01E-3 version = 4.5
+ binunit = 2 mobmod = 0 capmod = 2
+ rdsmod = 0 igcmod = 0 igbmod = 0
+ rbodymod = 1 trnqsmod = 0 acnqsmod = 0
+ fnoimod = 1 tnoimod = 1 diomod = 1
+ tempmod = 0 permod = 1 geomod = 0
+ rgatemod = 0 epsrox = 3.9 toxe = 4.23E-9
+ toxm = 4.23E-9 dtox = 0 xj = 1.5E-7
+ ndep = 1.7E17 ngate = 9.999999999999999E22 nsd = 1E20
+ rsh = {swx_nrds} rshg = 0.1 phin = 0
+ wint = {7.3039E-9+sw_activecd} wl = 0 wln = 1
+ ww = 0 wwn = 1 wwl = 0
+ lint = {-1.3994E-8-sw_polycd} ll = 0 lln = 1
+ lw = 0 lwn = 1 lwl = 0
+ llc = 0 lwc = 0 lwlc = 0
+ wlc = 0 wwc = 0 wwlc = 0
+ dwg = -5.722E-9 dwb = -1.7864E-8 xl = 0
+ xw = 0 dmcg = 0 dmdg = 0
+ dmcgt = 0 xgw = 0 xgl = 0
+ ngcon = 1 vth0 = -1.0624270051384 lvth0 = 3.189929531261361E-8
+ k1 = 0.56285163226288 lk1 = -4.618105768145347E-8 k2 = -0.036139298542928
+ lk2 = 2.372902494638746E-8 k3 = -15.845 k3b = 2
+ w0 = 0 lpe0 = 0 lpeb = 0
+ vbm = -3 dvtp0 = 0 dvtp1 = 0
+ dvt0 = 4.4955 dvt1 = 0.294 dvt2 = 0.015
+ dvt0w = -4.9772 dvt1w = 1.1472E6 dvt2w = -8.96E-3
+ vfbsdoff = 0 u0 = 0.0102388475208 lu0 = -1.68615476841215E-9
+ ua = -6.448941519468001E-10 lua = -3.60086204608713E-16 ub = 1.00672124302384E-18
+ lub = 1.805592015719286E-25 uc = -5.9342542976688E-11 luc = 2.441319149781954E-17
+ ud = 0 up = 0 lp = 1
+ eu = 1.67 vsat = 5.97458806632E4 lvsat = 0.011826096628798
+ a0 = 0.99242407784 la0 = -4.351892401058587E-8 ags = 0.39408181584584
+ lags = 2.348729138113067E-7 b0 = 0 b1 = 0
+ keta = -0.0433129398494 lketa = 1.748385527110501E-8 a1 = 0
+ a2 = 1.0055976 la2 = -1.085530656288E-7 rdsw = 547.88
+ rdswmin = 0 rdw = 0 rdwmin = 0
+ rsw = 0 rswmin = 0 prwb = -0.32348
+ prwg = 0.1376 wr = 1 voff = -0.22937597595944
+ lvoff = -3.678114378007199E-9 voffl = 0 minv = 0
+ nfactor = 1.6385354519392 lnfactor = 2.608617009512568E-8 eta0 = 0.49
+ etab = -15.292603399365598 letab = 8.074278084374242E-6 dsub = 0.21844986818264
+ ldsub = 4.271303690666424E-8 cit = 1E-5 cdsc = 1.3E-4
+ cdscb = 7.8E-4 cdscd = 0 pclm = 0.61161503644472
+ lpclm = 6.066520638585094E-9 pdiblc1 = 0.723599095127128 lpdiblc1 = -3.61537833735426E-7
+ pdiblc2 = 4.3E-4 pdiblcb = 0.236063617142644 lpdiblcb = -2.434360570879102E-7
+ drout = 0.41525382127056 ldrout = 3.087389654149994E-7 pscbe1 = 8E8
+ pscbe2 = 8.713198730509598E-9 lpscbe2 = 2.285453447604983E-16 pvag = 0
+ delta = 0.01 fprout = 0 pdits = 0
+ pditsl = 0 pditsd = 0 lambda = 0
+ vtl = 0 lc = 5E-9 xn = 3
+ alpha0 = 9.1793747738312E-5 lalpha0 = -4.846594448205587E-11 alpha1 = -1.055976E-10
+ lalpha1 = 1.085530656288E-16 beta0 = 51.532746936979194 lbeta0 = -2.224334728221537E-5
+ aigbacc = 0.43 bigbacc = 0.054 cigbacc = 0.075
+ nigbacc = 1 aigbinv = 0.35 bigbinv = 0.03
+ cigbinv = 6E-3 eigbinv = 1.1 nigbinv = 3
+ aigc = 0.43 bigc = 0.054 cigc = 0.075
+ aigsd = 0.43 bigsd = 0.054 cigsd = 0.075
+ dlcig = 0 nigc = 1 poxedge = 1
+ pigcd = 1 ntox = 1 toxref = 4.23E-9
+ agidl = 1E-10 bgidl = 1.7182139032296E9 lbgidl = -370.63501159079
+ cgidl = 300 egidl = 0.1 noia = 1.5E42
+ noib = 0 noic = 0 em = 4.1E7
+ af = 1 ef = 1 kf = 0
+ lintnoi = -2E-7 tnoia = 2.5E7 tnoib = 0
+ ntnoi = 1 rnoia = 0.69 rnoib = 0.34
+ xpart = 0 cgso = {5.248925E-11/sw_func_tox_lv_ratio} cgdo = {5.248925E-11/sw_func_tox_lv_ratio}
+ cgbo = {0/sw_func_tox_lv_ratio} ckappas = 0.6 cf = 1.2E-11
+ clc = 1E-7 cle = 0.6 dlc = -3E-9
+ dwc = 0 vfbcv = -0.14469 noff = 3.9
+ voffcv = -0.10701 acde = 0.8 moin = 18.13
+ cgsl = {9.548271750000001E-12/sw_func_tox_lv_ratio} cgdl = {9.548271750000001E-12/sw_func_tox_lv_ratio} ijthsrev = 0.1
+ ijthsfwd = 0.1 xjbvs = 1 bvs = 12.69
+ jss = 2.1483E-5 jsws = 8.040000000000001E-10 cjs = {sw_psd_nw_cj}
+ mjs = 0.34629 mjsws = 0.29781 cjsws = {9.888891999999999E-11*sw_func_psd_nw_cj}
+ cjswgs = {2.39155046E-10*sw_func_psd_nw_cj} mjswgs = 0.9274 pbs = 0.6587
+ pbsws = 0.7418 pbswgs = 1.4338 xrcrg1 = 12
+ xrcrg2 = 1 rbpb = 50 rbpd = 50
+ rbps = 50 rbdb = 50 rbsb = 50
+ gbmin = 1E-12 tnom = 30 ute = -0.23309857548808
+ lute = -7.241430632519963E-8 kt1 = -0.43371464300408 lkt1 = -3.946465154956185E-8
+ kt1l = 0 kt2 = -0.03909512541676 lkt2 = -8.496844665455723E-9
+ ua1 = 3.3723123594224E-9 lua1 = -1.540321757666714E-15 ub1 = -2.9027539688824E-18
+ lub1 = 1.75066774676228E-24 uc1 = -4.9327926350544E-11 luc1 = 3.888522133797102E-17
+ at = 1.0754083678144E5 lat = -0.017181171330559 prt = 0
+ njs = 1.3632 xtis = 5.2 tpb = 2.0386E-3
+ tpbsw = 1.246E-3 tpbswg = 0 tcj = 1.2407E-3
+ tcjsw = 3.7357E-4 tcjswg = 2E-12 tvoff = 0
+ tvfbsdoff = 0 saref = 2.75E-6 sbref = 2.74E-6
+ wlod = 0 ku0 = 4.5E-8 kvsat = 0.5
+ kvth0 = 3.29E-8 tku0 = 0 llodku0 = 0
+ wlodku0 = 1 llodvth = 0 wlodvth = 1
+ lku0 = 0 wku0 = 2.5E-7 pku0 = 0
+ lkvth0 = 0 wkvth0 = 2E-7 pkvth0 = 0
+ stk2 = 0 lodk2 = 1 steta0 = 0
+ lodeta0 = 1

.model pshort_model.6 pmos
+ level = 54 lmin = 2.5E-7 lmax = 5E-7 wmin = 7E-6
+ wmax = 1.01E-3 version = 4.5
+ binunit = 2 mobmod = 0 capmod = 2
+ rdsmod = 0 igcmod = 0 igbmod = 0
+ rbodymod = 1 trnqsmod = 0 acnqsmod = 0
+ fnoimod = 1 tnoimod = 1 diomod = 1
+ tempmod = 0 permod = 1 geomod = 0
+ rgatemod = 0 epsrox = 3.9 toxe = 4.23E-9
+ toxm = 4.23E-9 dtox = 0 xj = 1.5E-7
+ ndep = 1.7E17 ngate = 9.999999999999999E22 nsd = 1E20
+ rsh = {swx_nrds} rshg = 0.1 phin = 0
+ wint = {7.3039E-9+sw_activecd} wl = 0 wln = 1
+ ww = 0 wwn = 1 wwl = 0
+ lint = {-1.3994E-8-sw_polycd} ll = 0 lln = 1
+ lw = 0 lwn = 1 lwl = 0
+ llc = 0 lwc = 0 lwlc = 0
+ wlc = 0 wwc = 0 wwlc = 0
+ dwg = -5.722E-9 dwb = -1.7864E-8 xl = 0
+ xw = 0 dmcg = 0 dmdg = 0
+ dmcgt = 0 xgw = 0 xgl = 0
+ ngcon = 1 vth0 = -1.0124385194416 lvth0 = 5.505974726531539E-9
+ k1 = 0.08709568447584 lk1 = 2.050123736787302E-7 k2 = 0.14027851671536
+ lk2 = -6.941746449620551E-8 k3 = -15.845 k3b = 2
+ w0 = 0 lpe0 = 0 lpeb = 0
+ vbm = -3 dvtp0 = 0 dvtp1 = 0
+ dvt0 = 4.4955 dvt1 = 0.294 dvt2 = 0.015
+ dvt0w = -4.9772 dvt1w = 1.1472E6 dvt2w = -8.96E-3
+ vfbsdoff = 0 u0 = 0.01008390899136 lu0 = -1.604349084130184E-9
+ ua = -5.189863622912E-10 lua = -4.265640066533939E-16 ub = 7.784653081887997E-19
+ lub = 3.01075596093612E-25 uc = -2.778294195410422E-11 luc = 7.750100873107581E-18
+ ud = 0 up = 0 lp = 1
+ eu = 1.67 vsat = 6.16513582256E4 lvsat = 0.010820027341582
+ a0 = 1.19308860166064 la0 = -1.49467384613598E-7 ags = -0.50603033730192
+ lags = 7.101213293274863E-7 b0 = 0 b1 = 0
+ keta = 0.069579111951392 lketa = -4.212179337509157E-8 a1 = 0
+ a2 = 0.8 rdsw = 547.88 rdswmin = 0
+ rdw = 0 rdwmin = 0 rsw = 0
+ rswmin = 0 prwb = -0.32348 prwg = 0.1376
+ wr = 1 voff = -0.20612908974192 lvoff = -1.595219133822314E-8
+ voffl = 0 minv = 0 nfactor = 1.3360896749344
+ lnfactor = 1.857739110043362E-7 eta0 = 1.032990803345882 leta0 = -2.866926282769854E-7
+ etab = 5.465032962355202E-3 letab = -2.918471073727998E-9 dsub = 0.1689577833808
+ ldsub = 6.88442637770182E-8 cit = 1E-5 cdsc = 1.3E-4
+ cdscb = 7.8E-4 cdscd = 0 pclm = 0.45686117965856
+ lpclm = 8.777469997539626E-8 pdiblc1 = -0.387531337591376 lpdiblc1 = 2.251257011747515E-7
+ pdiblc2 = -0.010312532689536 lpdiblc2 = 5.671928349682736E-9 pdiblcb = -0.3917928
+ lpdiblcb = 8.806459688640004E-8 drout = 1.59065746041392 ldrout = -3.118600512090249E-7
+ pscbe1 = 8E8 pscbe2 = 9.440251520520001E-9 lpscbe2 = -1.55329803731514E-16
+ pvag = 0 delta = 0.01 fprout = 0
+ pdits = 0 pditsl = 0 pditsd = 0
+ lambda = 0 vtl = 0 lc = 5E-9
+ xn = 3 alpha0 = -8.838017509640004E-9 lalpha0 = 4.719165988879806E-15
+ alpha1 = 2.111952E-10 lalpha1 = -5.870973125760002E-17 beta0 = 2.5236342748896
+ lbeta0 = 3.63287609401599E-6 aigbacc = 0.43 bigbacc = 0.054
+ cigbacc = 0.075 nigbacc = 1 aigbinv = 0.35
+ bigbinv = 0.03 cigbinv = 6E-3 eigbinv = 1.1
+ nigbinv = 3 aigc = 0.43 bigc = 0.054
+ cigc = 0.075 aigsd = 0.43 bigsd = 0.054
+ cigsd = 0.075 dlcig = 0 nigc = 1
+ poxedge = 1 pigcd = 1 ntox = 1
+ toxref = 4.23E-9 agidl = 1E-10 bgidl = 4.089569018911998E8
+ lbgidl = 320.63697403186916 cgidl = 560.2121596395841 lcgidl = -1.373888977437847E-4
+ egidl = 0.1 noia = 1.5E42 noib = 0
+ noic = 0 em = 4.1E7 af = 1
+ ef = 1 kf = 0 lintnoi = -2E-7
+ tnoia = 2.5E7 tnoib = 0 ntnoi = 1
+ rnoia = 0.69 rnoib = 0.34 xpart = 0
+ cgso = {5.248925E-11/sw_func_tox_lv_ratio} cgdo = {5.248925E-11/sw_func_tox_lv_ratio} cgbo = {0/sw_func_tox_lv_ratio}
+ ckappas = 0.6 cf = 1.2E-11 clc = 1E-7
+ cle = 0.6 dlc = -3E-9 dwc = 0
+ vfbcv = -0.14469 noff = 3.9 voffcv = -0.10701
+ acde = 0.8 moin = 18.13 cgsl = {9.548271750000001E-12/sw_func_tox_lv_ratio}
+ cgdl = {9.548271750000001E-12/sw_func_tox_lv_ratio} ijthsrev = 0.1 ijthsfwd = 0.1
+ xjbvs = 1 bvs = 12.69 jss = 2.1483E-5
+ jsws = 8.040000000000001E-10 cjs = {sw_psd_nw_cj} mjs = 0.34629
+ mjsws = 0.29781 cjsws = {9.888891999999999E-11*sw_func_psd_nw_cj} cjswgs = {2.39155046E-10*sw_func_psd_nw_cj}
+ mjswgs = 0.9274 pbs = 0.6587 pbsws = 0.7418
+ pbswgs = 1.4338 xrcrg1 = 12 xrcrg2 = 1
+ rbpb = 50 rbpd = 50 rbps = 50
+ rbdb = 50 rbsb = 50 gbmin = 1E-12
+ tnom = 30 ute = -0.378311652 lute = 4.256455516176021E-9
+ kt1 = -0.45237314112 lkt1 = -2.961318844633341E-8 kt1l = 0
+ kt2 = 0.019059258944 lkt2 = -3.920166175532468E-8 ua1 = 8.111838232E-10
+ lua1 = -1.880766240837216E-16 ub1 = 4.3553038656E-19 lub1 = -1.190633349904128E-26
+ uc1 = 9.125175919999995E-12 luc1 = 8.022684776351041E-18 at = 6.165657599999999E4
+ lat = 7.045167750912002E-3 prt = 0 njs = 1.3632
+ xtis = 5.2 tpb = 2.0386E-3 tpbsw = 1.246E-3
+ tpbswg = 0 tcj = 1.2407E-3 tcjsw = 3.7357E-4
+ tcjswg = 2E-12 tvoff = 0 tvfbsdoff = 0
+ saref = 1.75E-6 sbref = 1.74E-6 wlod = 0
+ ku0 = 4.5E-8 kvsat = 0.5 kvth0 = 3.29E-8
+ tku0 = 0 llodku0 = 0 wlodku0 = 1
+ llodvth = 0 wlodvth = 1 lku0 = 0
+ wku0 = 2.5E-7 pku0 = 0 lkvth0 = 0
+ wkvth0 = 2E-7 pkvth0 = 0 stk2 = 0
+ lodk2 = 1 steta0 = 0 lodeta0 = 1

.model pshort_model.7 pmos
+ level = 54 lmin = 1.8E-7 lmax = 2.5E-7 wmin = 7E-6
+ wmax = 1.01E-3 version = 4.5
+ binunit = 2 mobmod = 0 capmod = 2
+ rdsmod = 0 igcmod = 0 igbmod = 0
+ rbodymod = 1 trnqsmod = 0 acnqsmod = 0
+ fnoimod = 1 tnoimod = 1 diomod = 1
+ tempmod = 0 permod = 1 geomod = 0
+ rgatemod = 0 epsrox = 3.9 toxe = 4.23E-9
+ toxm = 4.23E-9 dtox = 0 xj = 1.5E-7
+ ndep = 1.7E17 ngate = 9.999999999999999E22 nsd = 1E20
+ rsh = {swx_nrds} rshg = 0.1 phin = 0