* Copyright 2020 The SkyWater PDK Authors
*
* Licensed under the Apache License, Version 2.0 (the "License");
* you may not use this file except in compliance with the License.
* You may obtain a copy of the License at
*
*     https://www.apache.org/licenses/LICENSE-2.0
*
* Unless required by applicable law or agreed to in writing, software
* distributed under the License is distributed on an "AS IS" BASIS,
* WITHOUT WARRANTIES OR CONDITIONS OF ANY KIND, either express or implied.
* See the License for the specific language governing permissions and
* limitations under the License.

******************************************************************
******************************************************************
*  *****************************************************
*  12/08/2020 Usman Suriono
*      Why     : New scalable sky130_fd_pr__nfet_01v8 5V (HV) model
*      What    : Converted from discrete nhv models
*                Replaced rsh from 1 to calculated rsh from the original model.
*                PDK netlist nrd/nrs = ratio of distance the middle of the contact to Gate.
*
*  *****************************************************
*
*  Nmos HV 5V Model
*  -----------------------------------------------------

.subckt  sky130_fd_pr__nfet_g5v0d10v5  d g s b  mult=1
+ 
.param  l = 1 w = 1 nf = 1 ad = 0 as = 0 pd = 0 ps = 0 nrd = {0.14/w} nrs = {0.14/w} sa = 0 sb = 0 sd = 0
+ swx_nrds = {89.1*nf/w+443.5}
+ swx_vth = {sw_vth0_sky130_fd_pr__nfet_g5v0d10v5+sw_vth0_sky130_fd_pr__nfet_g5v0d10v5_mc}

Msky130_fd_pr__nfet_g5v0d10v5  d g s b nhv_model l = {l} w = {w} ad = {ad} as = {as} pd = {pd} ps = {ps} nrd = {nrd} nrs = {nrs} sa = {sa} sb = {sb} sd = {sd} nf = {nf}
* + deltox = 0.3*(sw_tox_hv_corner - sw_tox_hv_nom) + sw_tox_hv_mc + sw_mm_tox_hv * mismatch_factor*MC_MM_SWITCH*AGAUSS(0,1.0,1)/sqrt(l*w*mult)
* + mulu0  = sw_u0_sky130_fd_pr__nfet_g5v0d10v5
+ delvto = {swx_vth*(0.10*8/l+0.90)*(0.045*7/w+0.955)*(-0.0007*56/(l*w)+1.0007)+sw_mm_vth0_sky130_fd_pr__nfet_g5v0d10v5*mismatch_factor*MC_MM_SWITCH*AGAUSS(0,1.0,1)/sqrt(l*w*mult)}
* + mulvsat = sw_vsat_sky130_fd_pr__nfet_g5v0d10v5




.model nhv_model.1 nmos
+ level = 54 lmin = 8E-6 lmax = 2.02E-5 wmin = 2E-5
+ wmax = 1.01E-3 version = 4.5
+ binunit = 2 mobmod = 0 capmod = 2
+ rdsmod = 0 igcmod = 0 igbmod = 0
+ rbodymod = 1 trnqsmod = 0 acnqsmod = 0
+ fnoimod = 1 tnoimod = 1 diomod = 1
+ tempmod = 0 permod = 1 geomod = 0
+ rgatemod = 0 epsrox = 3.9 toxe = 1.16E-8
+ toxm = 1.16E-8 dtox = 0 xj = 1.5E-7
+ ndep = 1.7E17 ngate = 1E23 nsd = 1E20
+ rsh = {swx_nrds} rshg = 0.1 phin = 0
+ wint = {2.1346E-8+sw_activecd} wl = 0 wln = 1
+ ww = 0 wwn = 1 wwl = 0
+ lint = {7.6507E-8-sw_polycd} ll = 0 lln = 1
+ lw = 0 lwn = 1 lwl = 0
+ llc = 0 lwc = 0 lwlc = 0
+ wlc = 0 wwc = 0 wwlc = 0
+ dwg = -4.1292E-9 dwb = -1.6944E-9 xl = 0
+ xw = 0 dmcg = 0 dmdg = 0
+ dmcgt = 0 xgw = 0 xgl = 0
+ ngcon = 1 vth0 = 0.78882 k1 = 0.88325
+ k2 = -0.039667 k3 = -0.884 k3b = 0.43
+ w0 = 0 lpe0 = 2.5E-8 lpeb = -2.182E-7
+ vbm = -3 dvtp0 = 0 dvtp1 = 0
+ dvt0 = 0 dvt1 = 0.53 dvt2 = -0.19251
+ dvt0w = 0.16 dvt1w = 6.9091E6 dvt2w = -0.036016
+ vfbsdoff = 0 u0 = 4.21082E-2 ua = -5.92431E-11
+ ub = 1.71671E-18 uc = 6.6204E-11 ud = 0
+ up = 0 lp = 1 eu = 1.67
+ vsat = 1.0566E5 a0 = 0.942599 ags = 0.149418
+ b0 = 3.2933E-8 b1 = 0 keta = -0.02132
+ a1 = 0 a2 = 0.659726 rdsw = 724.62
+ rdswmin = 0 rdw = 0 rdwmin = 0
+ rsw = 0 rswmin = 0 prwb = 0.05626
+ prwg = 0.048 wr = 1 voff = -0.20613
+ voffl = -4.257949E-7 minv = 0 nfactor = 0.96538
+ eta0 = 0.032 etab = -0.01932 dsub = 0.504
+ cit = -8E-4 cdsc = 0 cdscb = 0
+ cdscd = 0 pclm = 0.33405 pdiblc1 = 0.21098
+ pdiblc2 = 2E-4 pdiblcb = -0.26831 drout = 0.36075
+ pscbe1 = 9.3731E8 pscbe2 = 1.68E-6 pvag = 1.99
+ delta = 0.0246 fprout = 10.125 pdits = 0
+ pditsl = 0 pditsd = 0 lambda = 0
+ vtl = 0 lc = 5E-9 xn = 3
+ alpha0 = 1.4467E-5 alpha1 = 0 beta0 = 24
+ aigbacc = 1 bigbacc = 0 cigbacc = 0
+ nigbacc = 1 aigbinv = 0.35 bigbinv = 0.03
+ cigbinv = 6E-3 eigbinv = 1.1 nigbinv = 3
+ aigc = 0.43 bigc = 0.054 cigc = 0.075
+ aigsd = 0.43 bigsd = 0.054 cigsd = 0.075
+ dlcig = 0 nigc = 1 poxedge = 1
+ pigcd = 1 ntox = 1 toxref = 1.16E-8
+ agidl = 5.06E-11 bgidl = 1.058E9 cgidl = 4E3
+ egidl = 0.8 noia = 2.6E41 noib = 0
+ noic = 0 em = 4.1E7 af = 1
+ ef = 0.89 kf = 0 lintnoi = 0
+ tnoia = 7.5E6 tnoib = 7.2E6 ntnoi = 1
+ rnoia = 0.794 rnoib = 0.38 xpart = 0
+ cgso = {2.754679E-10/sw_func_tox_hv_ratio} cgdo = {2.754679E-10/sw_func_tox_hv_ratio} cgbo = {0/sw_func_tox_hv_ratio}
+ ckappas = 0.6 cf = 0 clc = 1E-7
+ cle = 0.6 dlc = 6.5995E-8 dwc = 0
+ vfbcv = -1 noff = 4 voffcv = -0.4104
+ acde = 0.4176 moin = 15 cgsl = {4.49025E-11/sw_func_tox_hv_ratio}
+ cgdl = {4.49025E-11/sw_func_tox_hv_ratio} ijthsrev = 0.1 ijthsfwd = 0.1
+ xjbvs = 1 bvs = 12.636 jss = 3.75E-4
+ jsws = 5.84E-11 cjs = {8.310E-04*sw_func_nsd_pw_cj} mjs = 0.295
+ mjsws = 0.037586 cjsws = {8.643094E-11*sw_func_nsd_pw_cj} cjswgs = {5.47776E-11*sw_func_nsd_pw_cj}
+ mjswgs = 0.78692 pbs = 0.72468 pbsws = 0.29067
+ pbswgs = 0.54958 xrcrg1 = 12 xrcrg2 = 1
+ rbpb = 50 rbpd = 50 rbps = 50
+ rbdb = 50 rbsb = 50 gbmin = 1E-12
+ tnom = 30 ute = -1.2986 kt1 = -0.40273
+ kt1l = 0 kt2 = -0.019151 ua1 = 3.0044E-9
+ ub1 = -3.7525E-18 uc1 = -5.9821E-11 at = 1.6E5
+ prt = 0 njs = 1.0773 xtis = 0.76
+ tpb = 1.344E-3 tpbsw = 9.9005E-4 tpbswg = 0
+ tcj = 6.7434E-4 tcjsw = 2.493E-4 tcjswg = 0
+ tvoff = 0 tvfbsdoff = 0 saref = 3E-6
+ sbref = 3E-6 wlod = 0 ku0 = -4.5E-8
+ kvsat = 0.3 kvth0 = 1.1E-8 tku0 = 0
+ llodku0 = 0 wlodku0 = 1 llodvth = 0
+ wlodvth = 1 lku0 = 0 wku0 = 2E-7
+ pku0 = 0 lkvth0 = 0 wkvth0 = 6.5E-7
+ pkvth0 = 0 stk2 = 0 lodk2 = 1
+ steta0 = 0 lodeta0 = 1

.model nhv_model.2 nmos
+ level = 54 lmin = 4E-6 lmax = 8E-6 wmin = 2E-5
+ wmax = 1.01E-3 version = 4.5
+ binunit = 2 mobmod = 0 capmod = 2
+ rdsmod = 0 igcmod = 0 igbmod = 0
+ rbodymod = 1 trnqsmod = 0 acnqsmod = 0
+ fnoimod = 1 tnoimod = 1 diomod = 1
+ tempmod = 0 permod = 1 geomod = 0
+ rgatemod = 0 epsrox = 3.9 toxe = 1.16E-8
+ toxm = 1.16E-8 dtox = 0 xj = 1.5E-7
+ ndep = 1.7E17 ngate = 1E23 nsd = 1E20
+ rsh = {swx_nrds} rshg = 0.1 phin = 0
+ wint = {2.1346E-8+sw_activecd} wl = 0 wln = 1
+ ww = 0 wwn = 1 wwl = 0
+ lint = {7.6507E-8-sw_polycd} ll = 0 lln = 1
+ lw = 0 lwn = 1 lwl = 0
+ llc = 0 lwc = 0 lwlc = 0
+ wlc = 0 wwc = 0 wwlc = 0
+ dwg = -4.1292E-9 dwb = -1.6944E-9 xl = 0
+ xw = 0 dmcg = 0 dmdg = 0
+ dmcgt = 0 xgw = 0 xgl = 0
+ ngcon = 1 vth0 = 0.783367 lvth0 = 4.279042E-8
+ k1 = 0.88325 k2 = -4.10016E-2 lk2 = 1.047271E-8
+ k3 = -0.884 k3b = 0.43 w0 = 0
+ lpe0 = 2.5E-8 lpeb = -2.182E-7 vbm = -3
+ dvtp0 = 0 dvtp1 = 0 dvt0 = 0
+ dvt1 = 0.53 dvt2 = -0.19251 dvt0w = 0.16
+ dvt1w = 6.9091E6 dvt2w = -0.036016 vfbsdoff = 0
+ u0 = 4.15573E-2 lu0 = 4.322814E-9 ua = -1.016037E-10
+ lua = 3.324031E-16 ub = 1.752362E-18 lub = -2.797603E-25
+ uc = 6.6204E-11 ud = 0 up = 0
+ lp = 1 eu = 1.67 vsat = 1.104687E5
+ lvsat = -3.77341E-2 a0 = 1.033611 la0 = -7.141721E-7
+ ags = 0.152066 lags = -2.078241E-8 b0 = 3.2933E-8
+ b1 = 0 keta = -1.72682E-2 lketa = -3.179472E-8
+ a1 = 0 a2 = 0.659726 rdsw = 724.62
+ rdswmin = 0 rdw = 0 rdwmin = 0
+ rsw = 0 rswmin = 0 prwb = 0.05626
+ prwg = 0.048 wr = 1 voff = -0.20613
+ voffl = -4.257949E-7 minv = 0 nfactor = 1.012092
+ lnfactor = -3.665486E-7 eta0 = 0.032 etab = -0.01932
+ dsub = 0.504 cit = -8E-4 cdsc = 0
+ cdscb = 0 cdscd = 0 pclm = 0.259909
+ lpclm = 5.817837E-7 pdiblc1 = 0.21098 pdiblc2 = 2E-4
+ pdiblcb = -0.26831 drout = 0.36075 pscbe1 = 9.3731E8
+ pscbe2 = 1.68E-6 pvag = 1.99 delta = 0.0246
+ fprout = 10.125 pdits = 0 pditsl = 0
+ pditsd = 0 lambda = 0 vtl = 0
+ lc = 5E-9 xn = 3 alpha0 = 1.4467E-5
+ alpha1 = 0 beta0 = 21.499459 lbeta0 = 1.962171E-5
+ aigbacc = 1 bigbacc = 0 cigbacc = 0
+ nigbacc = 1 aigbinv = 0.35 bigbinv = 0.03
+ cigbinv = 6E-3 eigbinv = 1.1 nigbinv = 3
+ aigc = 0.43 bigc = 0.054 cigc = 0.075
+ aigsd = 0.43 bigsd = 0.054 cigsd = 0.075
+ dlcig = 0 nigc = 1 poxedge = 1
+ pigcd = 1 ntox = 1 toxref = 1.16E-8
+ agidl = 5.06E-11 bgidl = 1.058E9 cgidl = 4E3
+ egidl = 0.8 noia = 2.6E41 noib = 0
+ noic = 0 em = 4.1E7 af = 1
+ ef = 0.89 kf = 0 lintnoi = 0
+ tnoia = 7.5E6 tnoib = 7.2E6 ntnoi = 1
+ rnoia = 0.794 rnoib = 0.38 xpart = 0
+ cgso = {2.754679E-10/sw_func_tox_hv_ratio} cgdo = {2.754679E-10/sw_func_tox_hv_ratio} cgbo = {0/sw_func_tox_hv_ratio}
+ ckappas = 0.6 cf = 0 clc = 1E-7
+ cle = 0.6 dlc = 6.5995E-8 dwc = 0
+ vfbcv = -1 noff = 4 voffcv = -0.4104
+ acde = 0.4176 moin = 15 cgsl = {4.49025E-11/sw_func_tox_hv_ratio}
+ cgdl = {4.49025E-11/sw_func_tox_hv_ratio} ijthsrev = 0.1 ijthsfwd = 0.1
+ xjbvs = 1 bvs = 12.636 jss = 3.75E-4
+ jsws = 5.84E-11 cjs = {8.310E-04*sw_func_nsd_pw_cj} mjs = 0.295
+ mjsws = 0.037586 cjsws = {8.643094E-11*sw_func_nsd_pw_cj} cjswgs = {5.47776E-11*sw_func_nsd_pw_cj}
+ mjswgs = 0.78692 pbs = 0.72468 pbsws = 0.29067
+ pbswgs = 0.54958 xrcrg1 = 12 xrcrg2 = 1
+ rbpb = 50 rbpd = 50 rbps = 50
+ rbdb = 50 rbsb = 50 gbmin = 1E-12
+ tnom = 30 ute = -1.33707 lute = 3.018725E-7
+ kt1 = -0.414271 lkt1 = 9.056174E-8 kt1l = 0
+ kt2 = -0.019151 ua1 = 3.0044E-9 ub1 = -3.7525E-18
+ uc1 = -5.9821E-11 at = 2.369397E5 lat = -0.603745
+ prt = 0 njs = 1.0773 xtis = 0.76
+ tpb = 1.344E-3 tpbsw = 9.9005E-4 tpbswg = 0
+ tcj = 6.7434E-4 tcjsw = 2.493E-4 tcjswg = 0
+ tvoff = 0 tvfbsdoff = 0 saref = 3E-6
+ sbref = 3E-6 wlod = 0 ku0 = -4.5E-8
+ kvsat = 0.3 kvth0 = 1.1E-8 tku0 = 0
+ llodku0 = 0 wlodku0 = 1 llodvth = 0
+ wlodvth = 1 lku0 = 0 wku0 = 2E-7
+ pku0 = 0 lkvth0 = 0 wkvth0 = 6.5E-7
+ pkvth0 = 0 stk2 = 0 lodk2 = 1
+ steta0 = 0 lodeta0 = 1

.model nhv_model.3 nmos
+ level = 54 lmin = 2E-6 lmax = 4E-6 wmin = 2E-5
+ wmax = 1.01E-3 version = 4.5
+ binunit = 2 mobmod = 0 capmod = 2
+ rdsmod = 0 igcmod = 0 igbmod = 0
+ rbodymod = 1 trnqsmod = 0 acnqsmod = 0
+ fnoimod = 1 tnoimod = 1 diomod = 1
+ tempmod = 0 permod = 1 geomod = 0
+ rgatemod = 0 epsrox = 3.9 toxe = 1.16E-8
+ toxm = 1.16E-8 dtox = 0 xj = 1.5E-7
+ ndep = 1.7E17 ngate = 1E23 nsd = 1E20
+ rsh = {swx_nrds} rshg = 0.1 phin = 0
+ wint = {2.1346E-8+sw_activecd} wl = 0 wln = 1
+ ww = 0 wwn = 1 wwl = 0
+ lint = {7.6507E-8-sw_polycd} ll = 0 lln = 1
+ lw = 0 lwn = 1 lwl = 0
+ llc = 0 lwc = 0 lwlc = 0
+ wlc = 0 wwc = 0 wwlc = 0
+ dwg = -4.1292E-9 dwb = -1.6944E-9 xl = 0
+ xw = 0 dmcg = 0 dmdg = 0
+ dmcgt = 0 xgw = 0 xgl = 0
+ ngcon = 1 vth0 = 0.799231 lvth0 = -1.823938E-8
+ k1 = 0.88325 k2 = -4.25688E-2 lk2 = 1.650177E-8
+ k3 = -0.884 k3b = 0.43 w0 = 0
+ lpe0 = 2.5E-8 lpeb = -2.182E-7 vbm = -3
+ dvtp0 = 0 dvtp1 = 0 dvt0 = 0
+ dvt1 = 0.53 dvt2 = -0.19251 dvt0w = 0.16
+ dvt1w = 6.9091E6 dvt2w = -0.036016 vfbsdoff = 0
+ u0 = 4.27638E-2 lu0 = -3.18674E-10 ua = 1.059937E-10
+ lua = -4.662212E-16 ub = 1.549686E-18 lub = 4.99931E-25
+ uc = 6.6204E-11 ud = 0 up = 0
+ lp = 1 eu = 1.67 vsat = 9.377998E4
+ lvsat = 2.64674E-2 a0 = 0.476534 la0 = 1.428898E-6
+ ags = 0.119435 lags = 1.047503E-7 b0 = 3.2933E-8
+ b1 = 0 keta = -3.92681E-2 lketa = 5.283878E-8
+ a1 = 0 a2 = 0.659726 rdsw = 724.62
+ rdswmin = 0 rdw = 0 rdwmin = 0
+ rsw = 0 rswmin = 0 prwb = 0.05626
+ prwg = 0.048 wr = 1 voff = -0.20613
+ voffl = -4.257949E-7 minv = 0 nfactor = 0.961332
+ lnfactor = -1.71274E-7 eta0 = 0.032 etab = -0.01932
+ dsub = 0.504 cit = -8E-4 cdsc = 0
+ cdscb = 0 cdscd = 0 pclm = 0.600982
+ lpclm = -7.303213E-7 pdiblc1 = 0.21098 pdiblc2 = 2E-4
+ pdiblcb = -0.26831 drout = 0.36075 pscbe1 = 9.3731E8
+ pscbe2 = 1.68E-6 pvag = 1.99 delta = 0.0246
+ fprout = 10.125 pdits = 0 pditsl = 0
+ pditsd = 0 lambda = 0 vtl = 0
+ lc = 5E-9 xn = 3 alpha0 = 1.4467E-5
+ alpha1 = 0 beta0 = 23.859073 lbeta0 = 1.054431E-5
+ aigbacc = 1 bigbacc = 0 cigbacc = 0
+ nigbacc = 1 aigbinv = 0.35 bigbinv = 0.03
+ cigbinv = 6E-3 eigbinv = 1.1 nigbinv = 3
+ aigc = 0.43 bigc = 0.054 cigc = 0.075
+ aigsd = 0.43 bigsd = 0.054 cigsd = 0.075
+ dlcig = 0 nigc = 1 poxedge = 1
+ pigcd = 1 ntox = 1 toxref = 1.16E-8
+ agidl = 5.06E-11 bgidl = 1.058E9 cgidl = 4E3
+ egidl = 0.8 noia = 2.6E41 noib = 0
+ noic = 0 em = 4.1E7 af = 1
+ ef = 0.89 kf = 0 lintnoi = 0
+ tnoia = 7.5E6 tnoib = 7.2E6 ntnoi = 1
+ rnoia = 0.794 rnoib = 0.38 xpart = 0
+ cgso = {2.754679E-10/sw_func_tox_hv_ratio} cgdo = {2.754679E-10/sw_func_tox_hv_ratio} cgbo = {0/sw_func_tox_hv_ratio}
+ ckappas = 0.6 cf = 0 clc = 1E-7
+ cle = 0.6 dlc = 6.5995E-8 dwc = 0
+ vfbcv = -1 noff = 4 voffcv = -0.4104
+ acde = 0.4176 moin = 15 cgsl = {4.49025E-11/sw_func_tox_hv_ratio}
+ cgdl = {4.49025E-11/sw_func_tox_hv_ratio} ijthsrev = 0.1 ijthsfwd = 0.1
+ xjbvs = 1 bvs = 12.636 jss = 3.75E-4
+ jsws = 5.84E-11 cjs = {8.310E-04*sw_func_nsd_pw_cj} mjs = 0.295
+ mjsws = 0.037586 cjsws = {8.643094E-11*sw_func_nsd_pw_cj} cjswgs = {5.47776E-11*sw_func_nsd_pw_cj}
+ mjswgs = 0.78692 pbs = 0.72468 pbsws = 0.29067
+ pbswgs = 0.54958 xrcrg1 = 12 xrcrg2 = 1
+ rbpb = 50 rbpd = 50 rbps = 50
+ rbdb = 50 rbsb = 50 gbmin = 1E-12
+ tnom = 30 ute = -1.22166 lute = -1.421066E-7
+ kt1 = -0.407353 lkt1 = 6.394796E-8 kt1l = 0
+ kt2 = -0.019151 ua1 = 3.0044E-9 ub1 = -3.7525E-18
+ uc1 = -5.9821E-11 at = 1.391036E5 lat = -0.227371
+ prt = 0 njs = 1.0773 xtis = 0.76
+ tpb = 1.344E-3 tpbsw = 9.9005E-4 tpbswg = 0
+ tcj = 6.7434E-4 tcjsw = 2.493E-4 tcjswg = 0
+ tvoff = 0 tvfbsdoff = 0 saref = 3E-6
+ sbref = 3E-6 wlod = 0 ku0 = -4.5E-8
+ kvsat = 0.3 kvth0 = 1.1E-8 tku0 = 0
+ llodku0 = 0 wlodku0 = 1 llodvth = 0
+ wlodvth = 1 lku0 = 0 wku0 = 2E-7
+ pku0 = 0 lkvth0 = 0 wkvth0 = 6.5E-7
+ pkvth0 = 0 stk2 = 0 lodk2 = 1
+ steta0 = 0 lodeta0 = 1

.model nhv_model.4 nmos
+ level = 54 lmin = 1E-6 lmax = 2E-6 wmin = 2E-5
+ wmax = 1.01E-3 version = 4.5
+ binunit = 2 mobmod = 0 capmod = 2
+ rdsmod = 0 igcmod = 0 igbmod = 0
+ rbodymod = 1 trnqsmod = 0 acnqsmod = 0
+ fnoimod = 1 tnoimod = 1 diomod = 1
+ tempmod = 0 permod = 1 geomod = 0
+ rgatemod = 0 epsrox = 3.9 toxe = 1.16E-8
+ toxm = 1.16E-8 dtox = 0 xj = 1.5E-7
+ ndep = 1.7E17 ngate = 1E23 nsd = 1E20
+ rsh = {swx_nrds} rshg = 0.1 phin = 0
+ wint = {2.1346E-8+sw_activecd} wl = 0 wln = 1
+ ww = 0 wwn = 1 wwl = 0
+ lint = {7.6507E-8-sw_polycd} ll = 0 lln = 1
+ lw = 0 lwn = 1 lwl = 0
+ llc = 0 lwc = 0 lwlc = 0
+ wlc = 0 wwc = 0 wwlc = 0
+ dwg = -4.1292E-9 dwb = -1.6944E-9 xl = 0
+ xw = 0 dmcg = 0 dmdg = 0
+ dmcgt = 0 xgw = 0 xgl = 0
+ ngcon = 1 vth0 = 0.778498 lvth0 = 2.005524E-8
+ k1 = 0.88325 k2 = -4.07042E-2 lk2 = 1.305781E-8
+ k3 = -0.884 k3b = 0.43 w0 = 0
+ lpe0 = 2.5E-8 lpeb = -2.182E-7 vbm = -3
+ dvtp0 = 0 dvtp1 = 0 dvt0 = 0
+ dvt1 = 0.53 dvt2 = -0.19251 dvt0w = 0.16
+ dvt1w = 6.9091E6 dvt2w = -0.036016 vfbsdoff = 0
+ u0 = 4.11635E-2 lu0 = 2.637061E-9 ua = -1.424028E-10
+ lua = -7.436395E-18 ub = 1.763188E-18 lub = 1.055951E-25
+ uc = 6.6204E-11 ud = 0 up = 0
+ lp = 1 eu = 1.67 vsat = 1.198856E5
+ lvsat = -2.17495E-2 a0 = 1.702597 la0 = -8.356247E-7
+ ags = 0.152949 lags = 4.284969E-8 b0 = 3.2933E-8
+ b1 = 0 keta = 3.322045E-3 lketa = -2.582464E-8
+ a1 = 0 a2 = 0.659726 rdsw = 724.62
+ rdswmin = 0 rdw = 0 rdwmin = 0
+ rsw = 0 rswmin = 0 prwb = 0.05626
+ prwg = 0.048 wr = 1 voff = -0.20613
+ voffl = -4.257949E-7 minv = 0 nfactor = 0.902098
+ lnfactor = -6.187088E-8 eta0 = 0.032 etab = -0.01932
+ dsub = 0.504 cit = -8E-4 cdsc = 0
+ cdscb = 0 cdscd = 0 pclm = 9.67492E-2
+ lpclm = 2.009904E-7 pdiblc1 = 0.21098 pdiblc2 = 2E-4
+ pdiblcb = -0.26831 drout = 0.36075 pscbe1 = 9.3731E8
+ pscbe2 = 1.68E-6 pvag = 1.99 delta = 0.0246
+ fprout = 10.125 pdits = 0 pditsl = 0
+ pditsd = 0 lambda = 0 vtl = 0
+ lc = 5E-9 xn = 3 alpha0 = 1.4467E-5
+ alpha1 = 0 beta0 = 27.084637 lbeta0 = 4.586737E-6
+ aigbacc = 1 bigbacc = 0 cigbacc = 0
+ nigbacc = 1 aigbinv = 0.35 bigbinv = 0.03
+ cigbinv = 6E-3 eigbinv = 1.1 nigbinv = 3
+ aigc = 0.43 bigc = 0.054 cigc = 0.075
+ aigsd = 0.43 bigsd = 0.054 cigsd = 0.075
+ dlcig = 0 nigc = 1 poxedge = 1
+ pigcd = 1 ntox = 1 toxref = 1.16E-8
+ agidl = 5.06E-11 bgidl = 1.058E9 cgidl = 4E3
+ egidl = 0.8 noia = 2.6E41 noib = 0
+ noic = 0 em = 4.1E7 af = 1
+ ef = 0.89 kf = 0 lintnoi = 0
+ tnoia = 7.5E6 tnoib = 7.2E6 ntnoi = 1
+ rnoia = 0.794 rnoib = 0.38 xpart = 0
+ cgso = {2.754679E-10/sw_func_tox_hv_ratio} cgdo = {2.754679E-10/sw_func_tox_hv_ratio} cgbo = {0/sw_func_tox_hv_ratio}
+ ckappas = 0.6 cf = 0 clc = 1E-7
+ cle = 0.6 dlc = 6.5995E-8 dwc = 0
+ vfbcv = -1 noff = 4 voffcv = -0.4104
+ acde = 0.4176 moin = 15 cgsl = {4.49025E-11/sw_func_tox_hv_ratio}
+ cgdl = {4.49025E-11/sw_func_tox_hv_ratio} ijthsrev = 0.1 ijthsfwd = 0.1
+ xjbvs = 1 bvs = 12.636 jss = 3.75E-4
+ jsws = 5.84E-11 cjs = {8.310E-04*sw_func_nsd_pw_cj} mjs = 0.295
+ mjsws = 0.037586 cjsws = {8.643094E-11*sw_func_nsd_pw_cj} cjswgs = {5.47776E-11*sw_func_nsd_pw_cj}
+ mjswgs = 0.78692 pbs = 0.72468 pbsws = 0.29067
+ pbswgs = 0.54958 xrcrg1 = 12 xrcrg2 = 1
+ rbpb = 50 rbpd = 50 rbps = 50
+ rbdb = 50 rbsb = 50 gbmin = 1E-12
+ tnom = 30 ute = -1.2986 kt1 = -0.3812
+ lkt1 = 1.564371E-8 kt1l = 0 kt2 = -0.019151
+ ua1 = 3.0044E-9 ub1 = -4.006765E-18 lub1 = 4.696243E-25
+ uc1 = -5.9821E-11 at = 9.224112E3 lat = 0.012515
+ prt = 0 njs = 1.0773 xtis = 0.76
+ tpb = 1.344E-3 tpbsw = 9.9005E-4 tpbswg = 0
+ tcj = 6.7434E-4 tcjsw = 2.493E-4 tcjswg = 0
+ tvoff = 0 tvfbsdoff = 0 saref = 3E-6
+ sbref = 3E-6 wlod = 0 ku0 = -4.5E-8
+ kvsat = 0.3 kvth0 = 1.1E-8 tku0 = 0
+ llodku0 = 0 wlodku0 = 1 llodvth = 0
+ wlodvth = 1 lku0 = 0 wku0 = 2E-7
+ pku0 = 0 lkvth0 = 0 wkvth0 = 6.5E-7
+ pkvth0 = 0 stk2 = 0 lodk2 = 1
+ steta0 = 0 lodeta0 = 1

.model nhv_model.5 nmos
+ level = 54 lmin = 8E-7 lmax = 1E-6 wmin = 2E-5
+ wmax = 1.01E-3 version = 4.5
+ binunit = 2 mobmod = 0 capmod = 2
+ rdsmod = 0 igcmod = 0 igbmod = 0
+ rbodymod = 1 trnqsmod = 0 acnqsmod = 0
+ fnoimod = 1 tnoimod = 1 diomod = 1
+ tempmod = 0 permod = 1 geomod = 0
+ rgatemod = 0 epsrox = 3.9 toxe = 1.16E-8
+ toxm = 1.16E-8 dtox = 0 xj = 1.5E-7
+ ndep = 1.7E17 ngate = 1E23 nsd = 1E20
+ rsh = {swx_nrds} rshg = 0.1 phin = 0
+ wint = {2.1346E-8+sw_activecd} wl = 0 wln = 1
+ ww = 0 wwn = 1 wwl = 0
+ lint = {7.6507E-8-sw_polycd} ll = 0 lln = 1
+ lw = 0 lwn = 1 lwl = 0
+ llc = 0 lwc = 0 lwlc = 0
+ wlc = 0 wwc = 0 wwlc = 0
+ dwg = -4.1292E-9 dwb = -1.6944E-9 xl = 0
+ xw = 0 dmcg = 0 dmdg = 0
+ dmcgt = 0 xgw = 0 xgl = 0
+ ngcon = 1 vth0 = 0.788434 lvth0 = 1.163927E-8
+ k1 = 0.88325 k2 = -3.61286E-2 lk2 = 9.182362E-9
+ k3 = -0.884 k3b = 0.43 w0 = 0
+ lpe0 = 2.5E-8 lpeb = -2.182E-7 vbm = -3
+ dvtp0 = 0 dvtp1 = 0 dvt0 = 0
+ dvt1 = 0.53 dvt2 = -0.19251 dvt0w = 0.16
+ dvt1w = 6.9091E6 dvt2w = -0.036016 vfbsdoff = 0
+ u0 = 4.56315E-2 lu0 = -1.147213E-9 ua = -1.607848E-10
+ lua = 8.132965E-18 ub = 1.601827E-18 lub = 2.422655E-25
+ uc = 6.6204E-11 ud = 0 up = 0
+ lp = 1 eu = 1.67 vsat = 8.512623E4
+ lvsat = 7.691287E-3 a0 = -0.597982 la0 = 1.112934E-6
+ ags = 0.34358 lags = -1.18612E-7 b0 = 3.2933E-8
+ b1 = 0 keta = -8.05702E-2 lketa = 4.523094E-8
+ a1 = 0 a2 = 0.659726 rdsw = 724.62
+ rdswmin = 0 rdw = 0 rdwmin = 0
+ rsw = 0 rswmin = 0 prwb = 0.05626
+ prwg = 0.048 wr = 1 voff = -0.20613
+ voffl = -4.257949E-7 minv = 0 nfactor = 0.852374
+ lnfactor = -1.975497E-8 eta0 = 0.032 etab = -0.01932
+ dsub = 0.504 cit = -8E-4 cdsc = 0
+ cdscb = 0 cdscd = 0 pclm = -1.910183
+ lpclm = 1.900834E-6 pdiblc1 = 0.21098 pdiblc2 = 2E-4
+ pdiblcb = -0.26831 drout = 0.36075 pscbe1 = 9.3731E8
+ pscbe2 = 1.68E-6 pvag = 1.99 delta = 0.0246
+ fprout = 10.125 pdits = 0 pditsl = 0
+ pditsd = 0 lambda = 0 vtl = 0
+ lc = 5E-9 xn = 3 alpha0 = 5.108348E-6
+ lalpha0 = 7.926648E-12 alpha1 = 0 beta0 = 22.853439
+ lbeta0 = 8.170502E-6 aigbacc = 1 bigbacc = 0
+ cigbacc = 0 nigbacc = 1 aigbinv = 0.35
+ bigbinv = 0.03 cigbinv = 6E-3 eigbinv = 1.1
+ nigbinv = 3 aigc = 0.43 bigc = 0.054
+ cigc = 0.075 aigsd = 0.43 bigsd = 0.054
+ cigsd = 0.075 dlcig = 0 nigc = 1
+ poxedge = 1 pigcd = 1 ntox = 1
+ toxref = 1.16E-8 agidl = 5.06E-11 bgidl = 1.058E9
+ cgidl = 4E3 egidl = 0.8 noia = 2.6E41
+ noib = 0 noic = 0 em = 4.1E7
+ af = 1 ef = 0.89 kf = 0
+ lintnoi = 0 tnoia = 7.5E6 tnoib = 7.2E6
+ ntnoi = 1 rnoia = 0.794 rnoib = 0.38
+ xpart = 0 cgso = {2.754679E-10/sw_func_tox_hv_ratio} cgdo = {2.754679E-10/sw_func_tox_hv_ratio}
+ cgbo = {0/sw_func_tox_hv_ratio} ckappas = 0.6 cf = 0
+ clc = 1E-7 cle = 0.6 dlc = 6.5995E-8
+ dwc = 0 vfbcv = -1 noff = 4
+ voffcv = -0.4104 acde = 0.4176 moin = 15
+ cgsl = {4.49025E-11/sw_func_tox_hv_ratio} cgdl = {4.49025E-11/sw_func_tox_hv_ratio} ijthsrev = 0.1
+ ijthsfwd = 0.1 xjbvs = 1 bvs = 12.636
+ jss = 3.75E-4 jsws = 5.84E-11 cjs = {8.310E-04*sw_func_nsd_pw_cj}
+ mjs = 0.295 mjsws = 0.037586 cjsws = {8.643094E-11*sw_func_nsd_pw_cj}
+ cjswgs = {5.47776E-11*sw_func_nsd_pw_cj} mjswgs = 0.78692 pbs = 0.72468
+ pbsws = 0.29067 pbswgs = 0.54958 xrcrg1 = 12
+ xrcrg2 = 1 rbpb = 50 rbpd = 50
+ rbps = 50 rbdb = 50 rbsb = 50
+ gbmin = 1E-12 tnom = 30 ute = -1.465199
+ lute = 1.411069E-7 kt1 = -0.336851 lkt1 = -2.191952E-8
+ kt1l = 0 kt2 = -0.019151 ua1 = 6.215715E-9
+ lua1 = -2.719939E-15 ub1 = -9.939305E-18 lub1 = 5.494403E-24
+ uc1 = -5.9821E-11 at = 7.82535E3 lat = 1.36997E-2
+ prt = 0 njs = 1.0773 xtis = 0.76
+ tpb = 1.344E-3 tpbsw = 9.9005E-4 tpbswg = 0
+ tcj = 6.7434E-4 tcjsw = 2.493E-4 tcjswg = 0
+ tvoff = 0 tvfbsdoff = 0 saref = 2.81E-6
+ sbref = 2.81E-6 wlod = 0 ku0 = -4.5E-8
+ kvsat = 0.3 kvth0 = 1.1E-8 tku0 = 0
+ llodku0 = 0 wlodku0 = 1 llodvth = 0
+ wlodvth = 1 lku0 = 0 wku0 = 2E-7
+ pku0 = 0 lkvth0 = 0 wkvth0 = 6.5E-7
+ pkvth0 = 0 stk2 = 0 lodk2 = 1
+ steta0 = 0 lodeta0 = 1

.model nhv_model.6 nmos
+ level = 54 lmin = 6E-7 lmax = 8E-7 wmin = 2E-5
+ wmax = 1.01E-3 version = 4.5
+ binunit = 2 mobmod = 0 capmod = 2
+ rdsmod = 0 igcmod = 0 igbmod = 0
+ rbodymod = 1 trnqsmod = 0 acnqsmod = 0
+ fnoimod = 1 tnoimod = 1 diomod = 1
+ tempmod = 0 permod = 1 geomod = 0
+ rgatemod = 0 epsrox = 3.9 toxe = 1.16E-8
+ toxm = 1.16E-8 dtox = 0 xj = 1.5E-7
+ ndep = 1.7E17 ngate = 1E23 nsd = 1E20
+ rsh = {swx_nrds} rshg = 0.1 phin = 0
+ wint = {2.1346E-8+sw_activecd} wl = 0 wln = 1
+ ww = 0 wwn = 1 wwl = 0
+ lint = {7.6507E-8-sw_polycd} ll = 0 lln = 1
+ lw = 0 lwn = 1 lwl = 0
+ llc = 0 lwc = 0 lwlc = 0
+ wlc = 0 wwc = 0 wwlc = 0
+ dwg = -4.1292E-9 dwb = -1.6944E-9 xl = 0
+ xw = 0 dmcg = 0 dmdg = 0
+ dmcgt = 0 xgw = 0 xgl = 0
+ ngcon = 1 vth0 = 0.806424 k1 = 0.88325
+ k2 = -2.19361E-2 k3 = -0.884 k3b = 0.43
+ w0 = 0 lpe0 = 2.5E-8 lpeb = -2.182E-7
+ vbm = -3 dvtp0 = 0 dvtp1 = 0
+ dvt0 = 0 dvt1 = 0.53 dvt2 = -0.19251
+ dvt0w = 0.16 dvt1w = 6.9091E6 dvt2w = -0.036016
+ vfbsdoff = 0 u0 = 4.38583E-2 ua = -1.482143E-10
+ ub = 1.97628E-18 uc = 6.6204E-11 ud = 0
+ up = 0 lp = 1 eu = 1.67
+ vsat = 9.70141E4 a0 = 1.1222 ags = 0.16025
+ b0 = 3.2933E-8 b1 = 0 keta = -0.01066
+ a1 = 0 a2 = 0.659726 rdsw = 724.62
+ rdswmin = 0 rdw = 0 rdwmin = 0
+ rsw = 0 rswmin = 0 prwb = 0.05626
+ prwg = 0.048 wr = 1 voff = -0.20613
+ voffl = -4.257949E-7 minv = 0 nfactor = 0.82184
+ eta0 = 0.032 etab = -0.01932 dsub = 0.504
+ cit = -8E-4 cdsc = 0 cdscb = 0
+ cdscd = 0 pclm = 1.0278 pdiblc1 = 0.21098
+ pdiblc2 = 2E-4 pdiblcb = -0.26831 drout = 0.36075
+ pscbe1 = 9.3731E8 pscbe2 = 1.68E-6 pvag = 1.99
+ delta = 0.0246 fprout = 10.125 pdits = 0
+ pditsl = 0 pditsd = 0 lambda = 0
+ vtl = 0 lc = 5E-9 xn = 3
+ alpha0 = 1.736E-5 alpha1 = 0 beta0 = 35.482
+ aigbacc = 1 bigbacc = 0 cigbacc = 0
+ nigbacc = 1 aigbinv = 0.35 bigbinv = 0.03
+ cigbinv = 6E-3 eigbinv = 1.1 nigbinv = 3
+ aigc = 0.43 bigc = 0.054 cigc = 0.075
+ aigsd = 0.43 bigsd = 0.054 cigsd = 0.075
+ dlcig = 0 nigc = 1 poxedge = 1
+ pigcd = 1 ntox = 1 toxref = 1.16E-8
+ agidl = 5.06E-11 bgidl = 1.058E9 cgidl = 4E3
+ egidl = 0.8 noia = 2.6E41 noib = 0
+ noic = 0 em = 4.1E7 af = 1
+ ef = 0.89 kf = 0 lintnoi = 0
+ tnoia = 7.5E6 tnoib = 7.2E6 ntnoi = 1
+ rnoia = 0.794 rnoib = 0.38 xpart = 0
+ cgso = {2.754679E-10/sw_func_tox_hv_ratio} cgdo = {2.754679E-10/sw_func_tox_hv_ratio} cgbo = {0/sw_func_tox_hv_ratio}
+ ckappas = 0.6 cf = 0 clc = 1E-7
+ cle = 0.6 dlc = 6.5995E-8 dwc = 0
+ vfbcv = -1 noff = 4 voffcv = -0.4104
+ acde = 0.4176 moin = 15 cgsl = {4.49025E-11/sw_func_tox_hv_ratio}
+ cgdl = {4.49025E-11/sw_func_tox_hv_ratio} ijthsrev = 0.1 ijthsfwd = 0.1
+ xjbvs = 1 bvs = 12.636 jss = 3.75E-4
+ jsws = 5.84E-11 cjs = {8.310E-04*sw_func_nsd_pw_cj} mjs = 0.295
+ mjsws = 0.037586 cjsws = {8.643094E-11*sw_func_nsd_pw_cj} cjswgs = {5.47776E-11*sw_func_nsd_pw_cj}
+ mjswgs = 0.78692 pbs = 0.72468 pbsws = 0.29067
+ pbswgs = 0.54958 xrcrg1 = 12 xrcrg2 = 1
+ rbpb = 50 rbpd = 50 rbps = 50
+ rbdb = 50 rbsb = 50 gbmin = 1E-12
+ tnom = 30 ute = -1.2471 kt1 = -0.37073
+ kt1l = 0 kt2 = -0.019151 ua1 = 2.0117E-9
+ ub1 = -1.447E-18 uc1 = -5.9821E-11 at = 2.9E4
+ prt = 0 njs = 1.0773 xtis = 0.76
+ tpb = 1.344E-3 tpbsw = 9.9005E-4 tpbswg = 0
+ tcj = 6.7434E-4 tcjsw = 2.493E-4 tcjswg = 0
+ tvoff = 0 tvfbsdoff = 0 saref = 2.41E-6
+ sbref = 2.41E-6 wlod = 0 ku0 = -4.5E-8
+ kvsat = 0.3 kvth0 = 1.1E-8 tku0 = 0
+ llodku0 = 0 wlodku0 = 1 llodvth = 0
+ wlodvth = 1 lku0 = 0 wku0 = 2E-7
+ pku0 = 0 lkvth0 = 0 wkvth0 = 6.5E-7
+ pkvth0 = 0 stk2 = 0 lodk2 = 1
+ steta0 = 0 lodeta0 = 1

.model nhv_model.7 nmos
+ level = 54 lmin = 5E-7 lmax = 6E-7 wmin = 2E-5
+ wmax = 1.01E-3 version = 4.5
+ binunit = 2 mobmod = 0 capmod = 2
+ rdsmod = 0 igcmod = 0 igbmod = 0
+ rbodymod = 1 trnqsmod = 0 acnqsmod = 0
+ fnoimod = 1 tnoimod = 1 diomod = 1
+ tempmod = 0 permod = 1 geomod = 0
+ rgatemod = 0 epsrox = 3.9 toxe = 1.16E-8
+ toxm = 1.16E-8 dtox = 0 xj = 1.5E-7
+ ndep = 1.7E17 ngate = 1E23 nsd = 1E20
+ rsh = {swx_nrds} rshg = 0.1 phin = 0
+ wint = {2.1346E-8+sw_activecd} wl = 0 wln = 1
+ ww = 0 wwn = 1 wwl = 0
+ lint = {7.6507E-8-sw_polycd} ll = 0 lln = 1
+ lw = 0 lwn = 1 lwl = 0
+ llc = 0 lwc = 0 lwlc = 0
+ wlc = 0 wwc = 0 wwlc = 0
+ dwg = -4.1292E-9 dwb = -1.6944E-9 xl = 0
+ xw = 0 dmcg = 0 dmdg = 0
+ dmcgt = 0 xgw = 0 xgl = 0
+ ngcon = 1 vth0 = 0.801361 lvth0 = 2.262878E-9
+ k1 = 0.88325 k2 = 2.06956E-2 lk2 = -1.905579E-8
+ k3 = -0.884 k3b = 0.43 w0 = 0
+ lpe0 = 2.5E-8 lpeb = -2.182E-7 vbm = -3
+ dvtp0 = 0 dvtp1 = 0 dvt0 = 0
+ dvt1 = 0.53 dvt2 = -0.19251 dvt0w = 0.16
+ dvt1w = 6.9091E6 dvt2w = -0.036016 vfbsdoff = 0
+ u0 = 2.52481E-2 lu0 = 8.31852E-9 ua = -1.501647E-10
+ lua = 8.718052E-19 ub = -2.513788E-18 lub = 2.006998E-24
+ uc = 6.6204E-11 ud = 0 up = 0
+ lp = 1 eu = 1.67 vsat = 7.509777E4
+ lvsat = 9.796293E-3 a0 = 1.1222 ags = 0.16025
+ b0 = 3.2933E-8 b1 = 0 keta = -0.01066
+ a1 = 0 a2 = 0.659726 rdsw = 724.62
+ rdswmin = 0 rdw = 0 rdwmin = 0
+ rsw = 0 rswmin = 0 prwb = 0.05626
+ prwg = 0.048 wr = 1 voff = -0.20613
+ voffl = -4.257949E-7 minv = 0 nfactor = 1.207411
+ lnfactor = -1.723448E-7 eta0 = 0.032 etab = -0.01932
+ dsub = 0.504 cit = -8E-4 cdsc = 0
+ cdscb = 0 cdscd = 0 pclm = 0.136046
+ lpclm = 3.986016E-7 pdiblc1 = 0.21098 pdiblc2 = 2E-4
+ pdiblcb = -0.26831 drout = 0.36075 pscbe1 = 9.3731E8
+ pscbe2 = 1.68E-6 pvag = 1.99 delta = 0.0246
+ fprout = 10.125 pdits = 0 pditsl = 0
+ pditsd = 0 lambda = 0 vtl = 0
+ lc = 5E-9 xn = 3 alpha0 = 2.73983E-5
+ lalpha0 = -4.486982E-12 alpha1 = 0 beta0 = 30.353547
+ lbeta0 = 2.292347E-6 aigbacc = 1 bigbacc = 0
+ cigbacc = 0 nigbacc = 1 aigbinv = 0.35
+ bigbinv = 0.03 cigbinv = 6E-3 eigbinv = 1.1
+ nigbinv = 3 aigc = 0.43 bigc = 0.054
+ cigc = 0.075 aigsd = 0.43 bigsd = 0.054
+ cigsd = 0.075 dlcig = 0 nigc = 1
+ poxedge = 1 pigcd = 1 ntox = 1
+ toxref = 1.16E-8 agidl = 5.06E-11 bgidl = 1.058E9
+ cgidl = 4E3 egidl = 0.8 noia = 2.6E41
+ noib = 0 noic = 0 em = 4.1E7
+ af = 1 ef = 0.89 kf = 0
+ lintnoi = 0 tnoia = 7.5E6 tnoib = 7.2E6
+ ntnoi = 1 rnoia = 0.794 rnoib = 0.38
+ xpart = 0 cgso = {2.754679E-10/sw_func_tox_hv_ratio} cgdo = {2.754679E-10/sw_func_tox_hv_ratio}
+ cgbo = {0/sw_func_tox_hv_ratio} ckappas = 0.6 cf = 0
+ clc = 1E-7 cle = 0.6 dlc = 6.5995E-8
+ dwc = 0 vfbcv = -1 noff = 4
+ voffcv = -0.4104 acde = 0.4176 moin = 15
+ cgsl = {4.49025E-11/sw_func_tox_hv_ratio} cgdl = {4.49025E-11/sw_func_tox_hv_ratio} ijthsrev = 0.1
+ ijthsfwd = 0.1 xjbvs = 1 bvs = 12.636
+ jss = 3.75E-4 jsws = 5.84E-11 cjs = {8.310E-04*sw_func_nsd_pw_cj}
+ mjs = 0.295 mjsws = 0.037586 cjsws = {8.643094E-11*sw_func_nsd_pw_cj}
+ cjswgs = {5.47776E-11*sw_func_nsd_pw_cj} mjswgs = 0.78692 pbs = 0.72468
+ pbsws = 0.29067 pbswgs = 0.54958 xrcrg1 = 12
+ xrcrg2 = 1 rbpb = 50 rbpd = 50
+ rbps = 50 rbdb = 50 rbsb = 50
+ gbmin = 1E-12 tnom = 30 ute = -1.068402
+ lute = -7.987541E-8 kt1 = -0.440127 lkt1 = 3.101958E-8
+ kt1l = 0 kt2 = -0.019151 ua1 = -1.43283E-9
+ lua1 = 1.539657E-15 ub1 = 5.338311E-18 lub1 = -3.032939E-24
+ uc1 = -5.9821E-11 at = -4.247912E4 lat = 3.19502E-2
+ prt = 0 njs = 1.0773 xtis = 0.76
+ tpb = 1.344E-3 tpbsw = 9.9005E-4 tpbswg = 0
+ tcj = 6.7434E-4 tcjsw = 2.493E-4 tcjswg = 0
+ tvoff = 0 tvfbsdoff = 0 saref = 2.41E-6
+ sbref = 2.41E-6 wlod = 0 ku0 = -4.5E-8
+ kvsat = 0.3 kvth0 = 1.1E-8 tku0 = 0
+ llodku0 = 0 wlodku0 = 1 llodvth = 0
+ wlodvth = 1 lku0 = 0 wku0 = 2E-7
+ pku0 = 0 lkvth0 = 0 wkvth0 = 6.5E-7
+ pkvth0 = 0 stk2 = 0 lodk2 = 1
+ steta0 = 0 lodeta0 = 1

.model nhv_model.8 nmos
+ level = 54 lmin = 8E-6 lmax = 2.02E-5 wmin = 1.5E-5
+ wmax = 2E-5 version = 4.5
+ binunit = 2 mobmod = 0 capmod = 2
+ rdsmod = 0 igcmod = 0 igbmod = 0
+ rbodymod = 1 trnqsmod = 0 acnqsmod = 0
+ fnoimod = 1 tnoimod = 1 diomod = 1
+ tempmod = 0 permod = 1 geomod = 0
+ rgatemod = 0 epsrox = 3.9 toxe = 1.16E-8
+ toxm = 1.16E-8 dtox = 0 xj = 1.5E-7
+ ndep = 1.7E17 ngate = 1E23 nsd = 1E20
+ rsh = {swx_nrds} rshg = 0.1 phin = 0
+ wint = {2.1346E-8+sw_activecd} wl = 0 wln = 1
+ ww = 0 wwn = 1 wwl = 0
+ lint = {7.6507E-8-sw_polycd} ll = 0 lln = 1
+ lw = 0 lwn = 1 lwl = 0
+ llc = 0 lwc = 0 lwlc = 0
+ wlc = 0 wwc = 0 wwlc = 0
+ dwg = -4.1292E-9 dwb = -1.6944E-9 xl = 0
+ xw = 0 dmcg = 0 dmdg = 0
+ dmcgt = 0 xgw = 0 xgl = 0
+ ngcon = 1 vth0 = 0.78882 k1 = 0.88325
+ k2 = -0.039667 k3 = -0.884 k3b = 0.43
+ w0 = 0 lpe0 = 2.5E-8 lpeb = -2.182E-7
+ vbm = -3 dvtp0 = 0 dvtp1 = 0
+ dvt0 = 0 dvt1 = 0.53 dvt2 = -0.19251
+ dvt0w = 0.16 dvt1w = 6.9091E6 dvt2w = -0.036016
+ vfbsdoff = 0 u0 = 4.21082E-2 ua = -5.92431E-11
+ ub = 1.71671E-18 uc = 6.6204E-11 ud = 0
+ up = 0 lp = 1 eu = 1.67
+ vsat = 1.0566E5 a0 = 0.942599 ags = 0.149418
+ b0 = 3.2933E-8 b1 = 0 keta = -0.02132
+ a1 = 0 a2 = 0.659726 rdsw = 724.62
+ rdswmin = 0 rdw = 0 rdwmin = 0
+ rsw = 0 rswmin = 0 prwb = 0.05626
+ prwg = 0.048 wr = 1 voff = -0.20613